<?xml version="1.0" encoding="UTF-8"?>

<!-- generated on 2025-10-25 21:01:21.410474 by osmWebWizard.py v1_24_0+0000-b72eb3fabc8
<configuration>
    <net-file value="C:\Users\Bienvenido\Documents\UPTC\OctavoSemestre\Inteligencia\SegundoCorte\GraphSogamoso\2025-10-25-20-59-08\osm.net.xml.gz"/>
    <output-trip-file value="C:\Users\Bienvenido\Documents\UPTC\OctavoSemestre\Inteligencia\SegundoCorte\GraphSogamoso\2025-10-25-20-59-08\osm.passenger.trips.xml"/>
    <route-file value="C:\Users\Bienvenido\Documents\UPTC\OctavoSemestre\Inteligencia\SegundoCorte\GraphSogamoso\2025-10-25-20-59-08\osm.passenger.rou.xml"/>
    <prefix value="veh"/>
    <trip-attributes value="departLane=&quot;best&quot;"/>
    <fringe-start-attributes value="departSpeed=&quot;max&quot;"/>
    <vehicle-class value="passenger"/>
    <lanes value="True"/>
    <fringe-factor value="5"/>
    <allow-fringe.min-length value="1000.0"/>
    <edge-permission value="passenger"/>
    <via-edge-types value="highway.motorway,highway.motorway_link,highway.trunk_link,highway.primary_link,highway.secondary_link,highway.tertiary_link"/>
    <min-distance value="300.0"/>
    <min-distance.fringe value="10.0"/>
    <remove-loops value="True"/>
    <end value="7200.0"/>
    <insertion-density value="12.0"/>
</configuration>
-->

<routes xmlns:xsi="http://www.w3.org/2001/XMLSchema-instance" xsi:noNamespaceSchemaLocation="http://sumo.dlr.de/xsd/routes_file.xsd">
    <vType id="veh_passenger" vClass="passenger"/>
    <trip id="veh0" depart="0.00" from="615948362" to="-1089368252#1" departLane="best" type="veh_passenger"/>
    <trip id="veh1" depart="0.49" from="-836173902" to="-834261461" departLane="best" type="veh_passenger" departSpeed="max"/>
    <trip id="veh2" depart="0.97" from="834015071" to="833940236" departLane="best" type="veh_passenger" departSpeed="max"/>
    <trip id="veh3" depart="1.46" from="87391184#8" to="-401451307#0" departLane="best" type="veh_passenger"/>
    <trip id="veh4" depart="1.95" from="-87393265#3" to="-1089568185#1" departLane="best" type="veh_passenger"/>
    <trip id="veh5" depart="2.43" from="-834015070" to="1105888075#2" departLane="best" type="veh_passenger" departSpeed="max"/>
    <trip id="veh6" depart="2.92" from="-1087984862#4" to="-833959014" departLane="best" type="veh_passenger"/>
    <trip id="veh7" depart="3.41" from="631979162#2" to="1390029674" departLane="best" type="veh_passenger"/>
    <trip id="veh8" depart="3.89" from="863696787#1" to="-1008406071" departLane="best" type="veh_passenger"/>
    <trip id="veh9" depart="4.38" from="-87390584#0" to="-833611346#0" departLane="best" type="veh_passenger"/>
    <trip id="veh10" depart="4.86" from="87393294#2" to="-87391425#5" departLane="best" type="veh_passenger"/>
    <trip id="veh11" depart="5.35" from="-401434288#0" to="-505371075#0" departLane="best" type="veh_passenger"/>
    <trip id="veh12" depart="5.84" from="87390118#9" to="541727262" departLane="best" type="veh_passenger"/>
    <trip id="veh13" depart="6.32" from="836229703#1" to="834277389#2" departLane="best" type="veh_passenger"/>
    <trip id="veh14" depart="6.81" from="1101817937" to="87393989#4" departLane="best" type="veh_passenger"/>
    <trip id="veh15" depart="7.30" from="-87391693#4" to="254753596#6" departLane="best" type="veh_passenger"/>
    <trip id="veh16" depart="7.78" from="87389761#1" to="616138277#3" departLane="best" type="veh_passenger"/>
    <trip id="veh17" depart="8.27" from="87390467#6" to="486194434" departLane="best" type="veh_passenger"/>
    <trip id="veh18" depart="8.76" from="833940260#1" to="-1101816754" departLane="best" type="veh_passenger"/>
    <trip id="veh19" depart="9.24" from="-834249524#1" to="-87389813#3" departLane="best" type="veh_passenger"/>
    <trip id="veh20" depart="9.73" from="-123525361#5" to="-834277376" departLane="best" type="veh_passenger" departSpeed="max"/>
    <trip id="veh21" depart="10.22" from="-486194421#1" to="-87389593#13" departLane="best" type="veh_passenger" departSpeed="max"/>
    <trip id="veh22" depart="10.70" from="615948335#1" to="-87392435#2" departLane="best" type="veh_passenger"/>
    <trip id="veh23" depart="11.19" from="-87391436#7" to="-834012325" departLane="best" type="veh_passenger"/>
    <trip id="veh24" depart="11.68" from="-834672595#0" to="87392848#2" departLane="best" type="veh_passenger"/>
    <trip id="veh25" depart="12.16" from="627885309" to="615948335#1" departLane="best" type="veh_passenger"/>
    <trip id="veh26" depart="12.65" from="-833600663" to="834277382#2" departLane="best" type="veh_passenger" departSpeed="max"/>
    <trip id="veh27" depart="13.14" from="-833570043" to="-87392992#3" departLane="best" type="veh_passenger" departSpeed="max"/>
    <trip id="veh28" depart="13.62" from="913900802#6" to="750204851" departLane="best" type="veh_passenger"/>
    <trip id="veh29" depart="14.11" from="1163136284" to="833944968#0" departLane="best" type="veh_passenger"/>
    <trip id="veh30" depart="14.59" from="87390065" to="836217506#1" departLane="best" type="veh_passenger"/>
    <trip id="veh31" depart="15.08" from="-834254835" to="-1091356541#1" departLane="best" type="veh_passenger" departSpeed="max"/>
    <trip id="veh32" depart="15.57" from="-87389819#1" to="-836210997" departLane="best" type="veh_passenger"/>
    <trip id="veh33" depart="16.05" from="-833959013" to="87393015" departLane="best" type="veh_passenger" departSpeed="max"/>
    <trip id="veh34" depart="16.54" from="87390862#0" to="-87390721#1" departLane="best" type="veh_passenger"/>
    <trip id="veh35" depart="17.03" from="832077816#0" to="-87393789#1" departLane="best" type="veh_passenger" departSpeed="max"/>
    <trip id="veh36" depart="17.51" from="87391844#3" to="1089368254#0" departLane="best" type="veh_passenger"/>
    <trip id="veh37" depart="18.00" from="-834321244" to="-834290096" departLane="best" type="veh_passenger" departSpeed="max"/>
    <trip id="veh38" depart="18.49" from="311609730#0" to="87391683#0" departLane="best" type="veh_passenger"/>
    <trip id="veh39" depart="18.97" from="-87392440#0" to="-834252243" departLane="best" type="veh_passenger"/>
    <trip id="veh40" depart="19.46" from="939235082" to="1105898926#1" departLane="best" type="veh_passenger"/>
    <trip id="veh41" depart="19.95" from="-389383181#3" to="-1101824046#0" departLane="best" type="veh_passenger" departSpeed="max"/>
    <trip id="veh42" depart="20.43" from="-512022208" to="627276940#1" departLane="best" type="veh_passenger"/>
    <trip id="veh43" depart="20.92" from="834323191" to="1008406072" departLane="best" type="veh_passenger" departSpeed="max"/>
    <trip id="veh44" depart="21.41" from="-1110409466#2" to="-87393089#2" departLane="best" type="veh_passenger" departSpeed="max"/>
    <trip id="veh45" depart="21.89" from="939203349#1" to="1169375480" departLane="best" type="veh_passenger"/>
    <trip id="veh46" depart="22.38" from="87393919#4" to="87390853#0" departLane="best" type="veh_passenger"/>
    <trip id="veh47" depart="22.87" from="-1016016983" to="834264170#3" departLane="best" type="veh_passenger" departSpeed="max"/>
    <trip id="veh48" depart="23.35" from="833625255#0" to="1172503746" departLane="best" type="veh_passenger"/>
    <trip id="veh49" depart="23.84" from="-834672594#1" to="773691276" departLane="best" type="veh_passenger" departSpeed="max"/>
    <trip id="veh50" depart="24.32" from="-535882542#1" to="1016445801#3" departLane="best" type="veh_passenger" departSpeed="max"/>
    <trip id="veh51" depart="24.81" from="-936189984#5" to="87393326#6" departLane="best" type="veh_passenger"/>
    <trip id="veh52" depart="25.30" from="87390853#0" to="-834689210" departLane="best" type="veh_passenger"/>
    <trip id="veh53" depart="25.78" from="1089568183#1" to="-833940254" departLane="best" type="veh_passenger"/>
    <trip id="veh54" depart="26.27" from="87391817#2" to="87391047#11" departLane="best" type="veh_passenger"/>
    <trip id="veh55" depart="26.76" from="496915245#1" to="-833605588" departLane="best" type="veh_passenger"/>
    <trip id="veh56" depart="27.24" from="834277388" to="1172513740#3" departLane="best" type="veh_passenger" departSpeed="max"/>
    <trip id="veh57" depart="27.73" from="834303429" to="1172487929" departLane="best" type="veh_passenger" departSpeed="max"/>
    <trip id="veh58" depart="28.22" from="-1007559292" to="-87390992#5" departLane="best" type="veh_passenger"/>
    <trip id="veh59" depart="28.70" from="-1016784818" to="87392628#1" departLane="best" type="veh_passenger" departSpeed="max"/>
    <trip id="veh60" depart="29.19" from="87390905#2" to="87390169#2" departLane="best" type="veh_passenger"/>
    <trip id="veh61" depart="29.68" from="-87389674" to="-113870449#8" departLane="best" type="veh_passenger"/>
    <trip id="veh62" depart="30.16" from="87390898#4" to="87393154#1" departLane="best" type="veh_passenger"/>
    <trip id="veh63" depart="30.65" from="-294434025#2" to="1095438779" departLane="best" type="veh_passenger"/>
    <trip id="veh64" depart="31.14" from="-1169371940#0" to="836170108" departLane="best" type="veh_passenger"/>
    <trip id="veh65" depart="31.62" from="834282128#1" to="-627276957#0" departLane="best" type="veh_passenger"/>
    <trip id="veh66" depart="32.11" from="-834321244" to="87391069#0" departLane="best" type="veh_passenger" departSpeed="max"/>
    <trip id="veh67" depart="32.59" from="1101832957#4" to="834277389#2" departLane="best" type="veh_passenger"/>
    <trip id="veh68" depart="33.08" from="-833944986#0" to="-87390585#1" departLane="best" type="veh_passenger"/>
    <trip id="veh69" depart="33.57" from="-87393950#2" to="1110401726" departLane="best" type="veh_passenger"/>
    <trip id="veh70" depart="34.05" from="-541727223#1" to="-834264167#0" departLane="best" type="veh_passenger"/>
    <trip id="veh71" depart="34.54" from="-87390489#9" to="538102171#5" departLane="best" type="veh_passenger"/>
    <trip id="veh72" depart="35.03" from="-834254837" to="-834254831" departLane="best" type="veh_passenger" departSpeed="max"/>
    <trip id="veh73" depart="35.51" from="-1169372695" to="629062213#1" departLane="best" type="veh_passenger"/>
    <trip id="veh74" depart="36.00" from="-834254833#1" to="87391845#0" departLane="best" type="veh_passenger" departSpeed="max"/>
    <trip id="veh75" depart="36.49" from="87390426#1" to="-1390029676" departLane="best" type="veh_passenger"/>
    <trip id="veh76" depart="36.97" from="-834270907" to="833915350" departLane="best" type="veh_passenger"/>
    <trip id="veh77" depart="37.46" from="-834003924" to="-750204849#1" departLane="best" type="veh_passenger" departSpeed="max"/>
    <trip id="veh78" depart="37.95" from="87392566#2" to="406320076#3" departLane="best" type="veh_passenger"/>
    <trip id="veh79" depart="38.43" from="1016445802#3" to="836229700" departLane="best" type="veh_passenger"/>
    <trip id="veh80" depart="38.92" from="846596291" to="-833950506" departLane="best" type="veh_passenger" departSpeed="max"/>
    <trip id="veh81" depart="39.41" from="-416469407#3" to="1016048038" departLane="best" type="veh_passenger"/>
    <trip id="veh82" depart="39.89" from="-87393277#1" to="1089568185#1" departLane="best" type="veh_passenger"/>
    <trip id="veh83" depart="40.38" from="909605879#1" to="-512022205#0" departLane="best" type="veh_passenger"/>
    <trip id="veh84" depart="40.87" from="-87392527" to="-87391482" departLane="best" type="veh_passenger"/>
    <trip id="veh85" depart="41.35" from="87390467#5" to="-834299341" departLane="best" type="veh_passenger"/>
    <trip id="veh86" depart="41.84" from="-833940219" to="1087984863#2" departLane="best" type="veh_passenger" departSpeed="max"/>
    <trip id="veh87" depart="42.32" from="-87393265#2" to="-87389593#19" departLane="best" type="veh_passenger"/>
    <trip id="veh88" depart="42.81" from="-834282135" to="87392440#0" departLane="best" type="veh_passenger" departSpeed="max"/>
    <trip id="veh89" depart="43.30" from="-87394014#3" to="87390862#0" departLane="best" type="veh_passenger" departSpeed="max"/>
    <trip id="veh90" depart="43.78" from="1107855710" to="-1105888106" departLane="best" type="veh_passenger"/>
    <trip id="veh91" depart="44.27" from="978495993" to="87390278#1" departLane="best" type="veh_passenger"/>
    <trip id="veh92" depart="44.76" from="87393841#1" to="87392517" departLane="best" type="veh_passenger"/>
    <trip id="veh93" depart="45.24" from="87390158#2" to="-833887545" departLane="best" type="veh_passenger"/>
    <trip id="veh94" depart="45.73" from="-87392490" to="-113886565#0" departLane="best" type="veh_passenger" departSpeed="max"/>
    <trip id="veh95" depart="46.22" from="-87391707" to="913896419" departLane="best" type="veh_passenger"/>
    <trip id="veh96" depart="46.70" from="-834321245#0" to="836229699" departLane="best" type="veh_passenger"/>
    <trip id="veh97" depart="47.19" from="-978495994" to="1009490231" departLane="best" type="veh_passenger" departSpeed="max"/>
    <trip id="veh98" depart="47.68" from="87393313" to="939203349#0" departLane="best" type="veh_passenger"/>
    <trip id="veh99" depart="48.16" from="113885391#0" to="834261069#3" departLane="best" type="veh_passenger"/>
    <trip id="veh100" depart="48.65" from="87393834#0" to="486196069" departLane="best" type="veh_passenger"/>
    <trip id="veh101" depart="49.14" from="1105888094" to="834303434" departLane="best" type="veh_passenger"/>
    <trip id="veh102" depart="49.62" from="-1105888100" to="505371075#2" departLane="best" type="veh_passenger"/>
    <trip id="veh103" depart="50.11" from="1089580790#0" to="87390672" departLane="best" type="veh_passenger"/>
    <trip id="veh104" depart="50.59" from="-750204850" to="87393660#1" departLane="best" type="veh_passenger"/>
    <trip id="veh105" depart="51.08" from="-123525361#5" to="-833944976#0" departLane="best" type="veh_passenger" departSpeed="max"/>
    <trip id="veh106" depart="51.57" from="389382790" to="833940219" departLane="best" type="veh_passenger" departSpeed="max"/>
    <trip id="veh107" depart="52.05" from="-834264172#2" to="-615948340#0" departLane="best" type="veh_passenger"/>
    <trip id="veh108" depart="52.54" from="389382789" to="616138282" departLane="best" type="veh_passenger" departSpeed="max"/>
    <trip id="veh109" depart="53.03" from="-87393142#3" to="505371070#4" departLane="best" type="veh_passenger"/>
    <trip id="veh110" depart="53.51" from="1095438792#1" to="87392805" departLane="best" type="veh_passenger"/>
    <trip id="veh111" depart="54.00" from="-833950524#1" to="834254836" departLane="best" type="veh_passenger" departSpeed="max"/>
    <trip id="veh112" depart="54.49" from="-834274943" to="-87393794#1" departLane="best" type="veh_passenger" departSpeed="max"/>
    <trip id="veh113" depart="54.97" from="833605583" to="-87390172#4" departLane="best" type="veh_passenger" departSpeed="max"/>
    <trip id="veh114" depart="55.46" from="-87389861#2" to="834321233" departLane="best" type="veh_passenger" departSpeed="max"/>
    <trip id="veh115" depart="55.95" from="-1172487993#1" to="1089368252#2" departLane="best" type="veh_passenger" departSpeed="max"/>
    <trip id="veh116" depart="56.43" from="939771725#2" to="939203350#0" departLane="best" type="veh_passenger"/>
    <trip id="veh117" depart="56.92" from="-1172488262" to="-834243061#0" departLane="best" type="veh_passenger" departSpeed="max"/>
    <trip id="veh118" depart="57.41" from="-834321245#0" to="87392777#3" departLane="best" type="veh_passenger"/>
    <trip id="veh119" depart="57.89" from="87390937#2" to="87391184#16" departLane="best" type="veh_passenger"/>
    <trip id="veh120" depart="58.38" from="-87391430#5" to="-833624296" departLane="best" type="veh_passenger"/>
    <trip id="veh121" depart="58.87" from="87389795#4" to="834005460" departLane="best" type="veh_passenger"/>
    <trip id="veh122" depart="59.35" from="505371060#1" to="913897053#0" departLane="best" type="veh_passenger"/>
    <trip id="veh123" depart="59.84" from="773691275#1" to="-1009885019" departLane="best" type="veh_passenger"/>
    <trip id="veh124" depart="60.32" from="87389593#11" to="-87390169#0" departLane="best" type="veh_passenger"/>
    <trip id="veh125" depart="60.81" from="833590268" to="87392905#2" departLane="best" type="veh_passenger" departSpeed="max"/>
    <trip id="veh126" depart="61.30" from="-615948344#3" to="-541735867#2" departLane="best" type="veh_passenger" departSpeed="max"/>
    <trip id="veh127" depart="61.78" from="-505371060#0" to="294434025#4" departLane="best" type="veh_passenger"/>
    <trip id="veh128" depart="62.27" from="-836170111" to="541735865" departLane="best" type="veh_passenger" departSpeed="max"/>
    <trip id="veh129" depart="62.76" from="1089368236#0" to="87391844#9" departLane="best" type="veh_passenger"/>
    <trip id="veh130" depart="63.24" from="87390118#19" to="-496915241#1" departLane="best" type="veh_passenger"/>
    <trip id="veh131" depart="63.73" from="-87393277#1" to="-87389510#8" departLane="best" type="veh_passenger"/>
    <trip id="veh132" depart="64.22" from="-1007926660" to="836211571#10" departLane="best" type="veh_passenger" departSpeed="max"/>
    <trip id="veh133" depart="64.70" from="615948343#1" to="-834672595#1" departLane="best" type="veh_passenger"/>
    <trip id="veh134" depart="65.19" from="834246971" to="254753596#2" departLane="best" type="veh_passenger" departSpeed="max"/>
    <trip id="veh135" depart="65.68" from="-87393470#1" to="-1013048961" departLane="best" type="veh_passenger"/>
    <trip id="veh136" depart="66.16" from="-1172503317#0" to="87391337#0" departLane="best" type="veh_passenger"/>
    <trip id="veh137" depart="66.65" from="87391597" to="1411690213#1" departLane="best" type="veh_passenger"/>
    <trip id="veh138" depart="67.14" from="87389848#2" to="505371059#3" departLane="best" type="veh_passenger"/>
    <trip id="veh139" depart="67.62" from="-627276957#0" to="-627276940#1" departLane="best" type="veh_passenger"/>
    <trip id="veh140" depart="68.11" from="-87389683#5" to="87391710#1" departLane="best" type="veh_passenger"/>
    <trip id="veh141" depart="68.60" from="836170115" to="87390847#2" departLane="best" type="veh_passenger" departSpeed="max"/>
    <trip id="veh142" depart="69.08" from="87391430#3" to="-834013512" departLane="best" type="veh_passenger"/>
    <trip id="veh143" depart="69.57" from="-87392730#2" to="616138285" departLane="best" type="veh_passenger"/>
    <trip id="veh144" depart="70.05" from="-742028882#1" to="87392686#1" departLane="best" type="veh_passenger"/>
    <trip id="veh145" depart="70.54" from="87390528#1" to="87394030" departLane="best" type="veh_passenger"/>
    <trip id="veh146" depart="71.03" from="87389436#5" to="87391286#0" departLane="best" type="veh_passenger"/>
    <trip id="veh147" depart="71.51" from="-1087114228#2" to="834282134" departLane="best" type="veh_passenger"/>
    <trip id="veh148" depart="72.00" from="-87390354#1" to="87392730#13" departLane="best" type="veh_passenger"/>
    <trip id="veh149" depart="72.49" from="836219067#0" to="87390918#2" departLane="best" type="veh_passenger"/>
    <trip id="veh150" depart="72.97" from="87389436#5" to="-836210991" departLane="best" type="veh_passenger"/>
    <trip id="veh151" depart="73.46" from="834313683" to="-541727233" departLane="best" type="veh_passenger" departSpeed="max"/>
    <trip id="veh152" depart="73.95" from="87390756#1" to="87390797#9" departLane="best" type="veh_passenger"/>
    <trip id="veh153" depart="74.43" from="-834243063" to="87389866#1" departLane="best" type="veh_passenger" departSpeed="max"/>
    <trip id="veh154" depart="74.92" from="1007904314" to="-87390413#1" departLane="best" type="veh_passenger" departSpeed="max"/>
    <trip id="veh155" depart="75.41" from="834702578" to="-834264176#0" departLane="best" type="veh_passenger" departSpeed="max"/>
    <trip id="veh156" depart="75.89" from="-1087114222#1" to="-833950517" departLane="best" type="veh_passenger"/>
    <trip id="veh157" depart="76.38" from="-87390198#1" to="87390918#5" departLane="best" type="veh_passenger"/>
    <trip id="veh158" depart="76.87" from="87393762" to="-87389593#4" departLane="best" type="veh_passenger"/>
    <trip id="veh159" depart="77.35" from="616138277#1" to="-87393936#2" departLane="best" type="veh_passenger"/>
    <trip id="veh160" depart="77.84" from="87394115#3" to="1172501263" departLane="best" type="veh_passenger"/>
    <trip id="veh161" depart="78.32" from="87392756#3" to="-541735867#1" departLane="best" type="veh_passenger"/>
    <trip id="veh162" depart="78.81" from="87393919#0" to="-833940254" departLane="best" type="veh_passenger" departSpeed="max"/>
    <trip id="veh163" depart="79.30" from="-505371075#0" to="1016445801#1" departLane="best" type="veh_passenger"/>
    <trip id="veh164" depart="79.78" from="486194433" to="1105898943" departLane="best" type="veh_passenger"/>
    <trip id="veh165" depart="80.27" from="-87391844#9" to="486194422" departLane="best" type="veh_passenger"/>
    <trip id="veh166" depart="80.76" from="-1007679016#4" to="87392490" departLane="best" type="veh_passenger"/>
    <trip id="veh167" depart="81.24" from="1101827191#4" to="834261462#1" departLane="best" type="veh_passenger"/>
    <trip id="veh168" depart="81.73" from="833590272" to="-87391184#15" departLane="best" type="veh_passenger" departSpeed="max"/>
    <trip id="veh169" depart="82.22" from="-87389789#2" to="87390528#0" departLane="best" type="veh_passenger" departSpeed="max"/>
    <trip id="veh170" depart="82.70" from="833950524#0" to="-87390194#2" departLane="best" type="veh_passenger"/>
    <trip id="veh171" depart="83.19" from="-87389696#1" to="-909605881#0" departLane="best" type="veh_passenger" departSpeed="max"/>
    <trip id="veh172" depart="83.68" from="-87392526#1" to="-87390118#0" departLane="best" type="veh_passenger"/>
    <trip id="veh173" depart="84.16" from="-541727262" to="1008025095" departLane="best" type="veh_passenger" departSpeed="max"/>
    <trip id="veh174" depart="84.65" from="87392781#2" to="833940239#1" departLane="best" type="veh_passenger"/>
    <trip id="veh175" depart="85.14" from="87391542#6" to="616138215#1" departLane="best" type="veh_passenger"/>
    <trip id="veh176" depart="85.62" from="-1007332733" to="-87389776#1" departLane="best" type="veh_passenger" departSpeed="max"/>
    <trip id="veh177" depart="86.11" from="-87393518" to="496915245#0" departLane="best" type="veh_passenger"/>
    <trip id="veh178" depart="86.60" from="823607080#5" to="1089563432" departLane="best" type="veh_passenger"/>
    <trip id="veh179" depart="87.08" from="1016550042" to="87391787#0" departLane="best" type="veh_passenger"/>
    <trip id="veh180" depart="87.57" from="836170115" to="-833926131" departLane="best" type="veh_passenger" departSpeed="max"/>
    <trip id="veh181" depart="88.05" from="541735873" to="-87391387#0" departLane="best" type="veh_passenger" departSpeed="max"/>
    <trip id="veh182" depart="88.54" from="87389593#3" to="834321210" departLane="best" type="veh_passenger"/>
    <trip id="veh183" depart="89.03" from="833605587" to="-834264167#0" departLane="best" type="veh_passenger" departSpeed="max"/>
    <trip id="veh184" depart="89.51" from="-833944968#1" to="-1089368248#1" departLane="best" type="veh_passenger" departSpeed="max"/>
    <trip id="veh185" depart="90.00" from="-834277394#1" to="1091358380#1" departLane="best" type="veh_passenger" departSpeed="max"/>
    <trip id="veh186" depart="90.49" from="-87392930#5" to="627888642" departLane="best" type="veh_passenger"/>
    <trip id="veh187" depart="90.97" from="-833940248#1" to="833956404" departLane="best" type="veh_passenger"/>
    <trip id="veh188" depart="91.46" from="1089368255#1" to="-834286993#0" departLane="best" type="veh_passenger"/>
    <trip id="veh189" depart="91.95" from="832077817" to="-1008042787" departLane="best" type="veh_passenger" departSpeed="max"/>
    <trip id="veh190" depart="92.43" from="834262834" to="836210999" departLane="best" type="veh_passenger" departSpeed="max"/>
    <trip id="veh191" depart="92.92" from="-496915278#1" to="1009893279#1" departLane="best" type="veh_passenger"/>
    <trip id="veh192" depart="93.41" from="1095431353" to="-1105888101" departLane="best" type="veh_passenger"/>
    <trip id="veh193" depart="93.89" from="-834282133" to="87390536#1" departLane="best" type="veh_passenger" departSpeed="max"/>
    <trip id="veh194" depart="94.38" from="1007549728" to="87389658#4" departLane="best" type="veh_passenger" departSpeed="max"/>
    <trip id="veh195" depart="94.87" from="833600658" to="913897720#0" departLane="best" type="veh_passenger" departSpeed="max"/>
    <trip id="veh196" depart="95.35" from="389382791" to="87393254" departLane="best" type="veh_passenger" departSpeed="max"/>
    <trip id="veh197" depart="95.84" from="87391184#16" to="615948349" departLane="best" type="veh_passenger"/>
    <trip id="veh198" depart="96.33" from="833950523#0" to="1105888073" departLane="best" type="veh_passenger" departSpeed="max"/>
    <trip id="veh199" depart="96.81" from="87389768#2" to="244227726#1" departLane="best" type="veh_passenger"/>
    <trip id="veh200" depart="97.30" from="87391392#3" to="834289289#3" departLane="best" type="veh_passenger"/>
    <trip id="veh201" depart="97.78" from="1016782942" to="-834321240#0" departLane="best" type="veh_passenger" departSpeed="max"/>
    <trip id="veh202" depart="98.27" from="834282128#1" to="113870449#5" departLane="best" type="veh_passenger"/>
    <trip id="veh203" depart="98.76" from="541727243#0" to="-870463612#0" departLane="best" type="veh_passenger"/>
    <trip id="veh204" depart="99.24" from="-1174578656#1" to="-87389744" departLane="best" type="veh_passenger"/>
    <trip id="veh205" depart="99.73" from="-836170108" to="-87390862#2" departLane="best" type="veh_passenger" departSpeed="max"/>
    <trip id="veh206" depart="100.22" from="1105888076#1" to="-833570046" departLane="best" type="veh_passenger"/>
    <trip id="veh207" depart="100.70" from="-834254840" to="833951556#0" departLane="best" type="veh_passenger" departSpeed="max"/>
    <trip id="veh208" depart="101.19" from="833940269" to="-1172493611" departLane="best" type="veh_passenger" departSpeed="max"/>
    <trip id="veh209" depart="101.68" from="-87392756#3" to="122266525#2" departLane="best" type="veh_passenger"/>
    <trip id="veh210" depart="102.16" from="-87392995#1" to="-834003923" departLane="best" type="veh_passenger"/>
    <trip id="veh211" depart="102.65" from="-87393220" to="87391844#3" departLane="best" type="veh_passenger"/>
    <trip id="veh212" depart="103.14" from="294434077#1" to="833955394#1" departLane="best" type="veh_passenger"/>
    <trip id="veh213" depart="103.62" from="-87391766#3" to="-1008042787" departLane="best" type="veh_passenger"/>
    <trip id="veh214" depart="104.11" from="-87390926#0" to="834321244" departLane="best" type="veh_passenger"/>
    <trip id="veh215" depart="104.60" from="87390278#1" to="87393326#2" departLane="best" type="veh_passenger"/>
    <trip id="veh216" depart="105.08" from="-87393137" to="834303432" departLane="best" type="veh_passenger"/>
    <trip id="veh217" depart="105.57" from="1105898943" to="541727254#8" departLane="best" type="veh_passenger"/>
    <trip id="veh218" depart="106.05" from="-87393852#2" to="-1089568182#1" departLane="best" type="veh_passenger"/>
    <trip id="veh219" depart="106.54" from="-87390467#3" to="833940246" departLane="best" type="veh_passenger"/>
    <trip id="veh220" depart="107.03" from="-87392628#1" to="-833870629" departLane="best" type="veh_passenger" departSpeed="max"/>
    <trip id="veh221" depart="107.51" from="1016016984" to="-627276943#1" departLane="best" type="veh_passenger" departSpeed="max"/>
    <trip id="veh222" depart="108.00" from="541727218#0" to="-1089561458#0" departLane="best" type="veh_passenger"/>
    <trip id="veh223" depart="108.49" from="-1087984863#0" to="832975488" departLane="best" type="veh_passenger"/>
    <trip id="veh224" depart="108.97" from="-615948359" to="1089561457" departLane="best" type="veh_passenger"/>
    <trip id="veh225" depart="109.46" from="-1097531043#0" to="-87392992#0" departLane="best" type="veh_passenger"/>
    <trip id="veh226" depart="109.95" from="-833959020#2" to="-87391118#1" departLane="best" type="veh_passenger"/>
    <trip id="veh227" depart="110.43" from="834277386#0" to="-87392992#0" departLane="best" type="veh_passenger"/>
    <trip id="veh228" depart="110.92" from="834264168" to="87390172#2" departLane="best" type="veh_passenger" departSpeed="max"/>
    <trip id="veh229" depart="111.41" from="-834282140" to="-389382789" departLane="best" type="veh_passenger" departSpeed="max"/>
    <trip id="veh230" depart="111.89" from="985540780" to="-87391835" departLane="best" type="veh_passenger"/>
    <trip id="veh231" depart="112.38" from="631979163#0" to="836222842" departLane="best" type="veh_passenger"/>
    <trip id="veh232" depart="112.87" from="87393065#2" to="-833959019#0" departLane="best" type="veh_passenger"/>
    <trip id="veh233" depart="113.35" from="-1016830795" to="-833605587" departLane="best" type="veh_passenger" departSpeed="max"/>
    <trip id="veh234" depart="113.84" from="-541727254#4" to="833915351" departLane="best" type="veh_passenger"/>
    <trip id="veh235" depart="114.33" from="1172488264#0" to="-834249521#2" departLane="best" type="veh_passenger"/>
    <trip id="veh236" depart="114.81" from="833940242#1" to="836210992#1" departLane="best" type="veh_passenger"/>
    <trip id="veh237" depart="115.30" from="-833590276" to="541735885#1" departLane="best" type="veh_passenger"/>
    <trip id="veh238" depart="115.78" from="834254834" to="-541727264#0" departLane="best" type="veh_passenger" departSpeed="max"/>
    <trip id="veh239" depart="116.27" from="87389601#3" to="87393817" departLane="best" type="veh_passenger"/>