<?xml version="1.0" encoding="UTF-8"?>

<!-- generated on 2025-11-19 00:45:20.545236 by randomTrips.py UNKNOWN
<configuration>
    <net-file value="TestLightsSogamosoNet.net.xml"/>
    <output-trip-file value="osm.passenger.trips.xml"/>
    <prefix value="veh"/>
    <vehicle-class value="passenger"/>
    <fringe-factor value="5"/>
</configuration>
-->

<routes xmlns:xsi="http://www.w3.org/2001/XMLSchema-instance" xsi:noNamespaceSchemaLocation="http://sumo.dlr.de/xsd/routes_file.xsd">
    <vType id="veh_passenger" vClass="passenger"/>
    <trip id="veh0" depart="0.00" from="615948339#1" to="-1089368247#5" type="veh_passenger"/>
    <trip id="veh1" depart="1.00" from="-834323185#1" to="-834249514" type="veh_passenger"/>
    <trip id="veh2" depart="2.00" from="833991623#0" to="833933201" type="veh_passenger"/>
    <trip id="veh3" depart="3.00" from="87391151#2" to="-401434287#1" type="veh_passenger"/>
    <trip id="veh4" depart="4.00" from="-87392777#2" to="-1089568180#1" type="veh_passenger"/>
    <trip id="veh5" depart="5.00" from="-833959021#1" to="1097531053" type="veh_passenger"/>
    <trip id="veh6" depart="6.00" from="-1087114241#1" to="-833950517" type="veh_passenger"/>
    <trip id="veh7" depart="7.00" from="627276942" to="1172516042" type="veh_passenger"/>
    <trip id="veh8" depart="8.00" from="-833977499#1" to="538102160#0" type="veh_passenger"/>
    <trip id="veh9" depart="9.00" from="836217509#1" to="-1008406071" type="veh_passenger"/>
    <trip id="veh10" depart="10.00" from="836208607" to="833955389" type="veh_passenger"/>
    <trip id="veh11" depart="11.00" from="-87390249#0" to="-833605583" type="veh_passenger"/>
    <trip id="veh12" depart="12.00" from="87393172#0" to="-87391090#0" type="veh_passenger"/>
    <trip id="veh13" depart="13.00" from="-389383179" to="-496915272#0" type="veh_passenger"/>
    <trip id="veh14" depart="14.00" from="87390070#2" to="541727247#0" type="veh_passenger"/>
    <trip id="veh15" depart="15.00" from="836210997" to="834274943" type="veh_passenger"/>
    <trip id="veh16" depart="16.00" from="1095438820#2" to="87393953" type="veh_passenger"/>
    <trip id="veh17" depart="17.00" from="87389680#3" to="616138215#1" type="veh_passenger"/>
    <trip id="veh18" depart="18.00" from="87390413#0" to="486194421#0" type="veh_passenger"/>
    <trip id="veh19" depart="19.00" from="833940247#0" to="-1097531050" type="veh_passenger"/>
    <trip id="veh20" depart="20.00" from="-1172513740#1" to="-834264170#0" type="veh_passenger"/>
    <trip id="veh21" depart="21.00" from="-455566491#2" to="-836214669" type="veh_passenger"/>
    <trip id="veh22" depart="22.00" from="541735872" to="-87391974#0" type="veh_passenger"/>
    <trip id="veh23" depart="23.00" from="-87391118#0" to="-833977490" type="veh_passenger"/>
    <trip id="veh24" depart="24.00" from="-834299345" to="87392777#2" type="veh_passenger"/>
    <trip id="veh25" depart="25.00" from="627249330#0" to="541735884#2" type="veh_passenger"/>
    <trip id="veh26" depart="26.00" from="-833579408" to="834270907" type="veh_passenger"/>
    <trip id="veh27" depart="27.00" from="-773691276" to="-87392535" type="veh_passenger"/>
    <trip id="veh28" depart="28.00" from="1105898962" to="833940261" type="veh_passenger"/>
    <trip id="veh29" depart="29.00" from="87389950" to="836210999" type="veh_passenger"/>
    <trip id="veh30" depart="30.00" from="-87389648#1" to="-834321243" type="veh_passenger"/>
    <trip id="veh31" depart="31.00" from="-833950525#0" to="87392915#0" type="veh_passenger"/>
    <trip id="veh32" depart="32.00" from="87390797#7" to="-87390399#2" type="veh_passenger"/>
    <trip id="veh33" depart="33.00" from="87391795#1" to="1087114231#1" type="veh_passenger"/>
    <trip id="veh34" depart="34.00" from="-834289289#4" to="-834282139#0" type="veh_passenger"/>
    <trip id="veh35" depart="35.00" from="113868670#6" to="-834310557" type="veh_passenger"/>
    <trip id="veh36" depart="36.00" from="939771724#0" to="1101824046#0" type="veh_passenger"/>
    <trip id="veh37" depart="37.00" from="-326169664" to="-1097531076" type="veh_passenger"/>
    <trip id="veh38" depart="38.00" from="-496915278#0" to="627249329#3" type="veh_passenger"/>
    <trip id="veh39" depart="39.00" from="-1105898968#0" to="-87392689" type="veh_passenger"/>
    <trip id="veh40" depart="40.00" from="936574255" to="113884917" type="veh_passenger"/>
    <trip id="veh41" depart="41.00" from="87393784#1" to="87390797#9" type="veh_passenger"/>
    <trip id="veh42" depart="42.00" from="-1014222598" to="834254837" type="veh_passenger"/>
    <trip id="veh43" depart="43.00" from="833611346#0" to="1172487993#1" type="veh_passenger"/>
    <trip id="veh44" depart="44.00" from="-505371070#4" to="1008042793" type="veh_passenger"/>
    <trip id="veh45" depart="45.00" from="-87393957#2" to="87393259#0" type="veh_passenger"/>
    <trip id="veh46" depart="46.00" from="87390797#2" to="-834310565" type="veh_passenger"/>
    <trip id="veh47" depart="47.00" from="1088690947#1" to="-833940221" type="veh_passenger"/>
    <trip id="veh48" depart="48.00" from="87391750#3" to="87390971" type="veh_passenger"/>
    <trip id="veh49" depart="49.00" from="-836218823" to="742028884" type="veh_passenger"/>
    <trip id="veh50" depart="50.00" from="486194436#0" to="-833600664" type="veh_passenger"/>
    <trip id="veh51" depart="51.00" from="834270906" to="1172494382" type="veh_passenger"/>
    <trip id="veh52" depart="52.00" from="834286993#1" to="113892077#1" type="veh_passenger"/>
    <trip id="veh53" depart="53.00" from="-1007559292" to="-87390679#6" type="veh_passenger"/>
    <trip id="veh54" depart="54.00" from="-1016784816" to="87392493" type="veh_passenger"/>
    <trip id="veh55" depart="55.00" from="87390853#0" to="87390118#27" type="veh_passenger"/>
    <trip id="veh56" depart="56.00" from="-854004552" to="-1112351475" type="veh_passenger"/>
    <trip id="veh57" depart="57.00" from="87390838#0" to="87393021#0" type="veh_passenger"/>
    <trip id="veh58" depart="58.00" from="-113882190#1" to="834323195" type="veh_passenger"/>
    <trip id="veh59" depart="59.00" from="1007904308" to="1311142900" type="veh_passenger"/>
    <trip id="veh60" depart="60.00" from="-834289290" to="87391026" type="veh_passenger"/>
    <trip id="veh61" depart="61.00" from="-87392788#4" to="-833991622" type="veh_passenger"/>
    <trip id="veh62" depart="62.00" from="1097531042#0" to="834274943" type="veh_passenger"/>
    <trip id="veh63" depart="63.00" from="-833940259#1" to="-87390291#0" type="veh_passenger"/>
    <trip id="veh64" depart="64.00" from="936190554" to="833575222" type="veh_passenger"/>
    <trip id="veh65" depart="65.00" from="-87393294#2" to="1105898931" type="veh_passenger"/>
    <trip id="veh66" depart="66.00" from="-541636220" to="-834249521#0" type="veh_passenger"/>
    <trip id="veh67" depart="67.00" from="-87390172#4" to="535882537#1" type="veh_passenger"/>
    <trip id="veh68" depart="68.00" from="-834243064" to="-834243062" type="veh_passenger"/>
    <trip id="veh69" depart="69.00" from="-1169188379#0" to="627276950#0" type="veh_passenger"/>
    <trip id="veh70" depart="70.00" from="87390354#2" to="-123525361#0" type="veh_passenger"/>
    <trip id="veh71" depart="71.00" from="-834254838" to="833887544#1" type="veh_passenger"/>
    <trip id="veh72" depart="72.00" from="-833950532" to="-627276959" type="veh_passenger"/>
    <trip id="veh73" depart="73.00" from="87392450#0" to="406320070#1" type="veh_passenger"/>
    <trip id="veh74" depart="74.00" from="1007602478" to="836219067#0" type="veh_passenger"/>
    <trip id="veh75" depart="75.00" from="836211571#0" to="-833944970" type="veh_passenger"/>
    <trip id="veh76" depart="76.00" from="-401451305#1" to="1007904304" type="veh_passenger"/>
    <trip id="veh77" depart="77.00" from="-87392788#4" to="1089368235#2" type="veh_passenger"/>
    <trip id="veh78" depart="78.00" from="833959016#0" to="833926136" type="veh_passenger"/>
    <trip id="veh79" depart="79.00" from="87394115#1" to="-505371064" type="veh_passenger"/>
    <trip id="veh80" depart="80.00" from="-87392100#0" to="-87391159#2" type="veh_passenger"/>
    <trip id="veh81" depart="81.00" from="87390405#7" to="-834285035#0" type="veh_passenger"/>
    <trip id="veh82" depart="82.00" from="-833915351" to="1016445800#3" type="veh_passenger"/>
    <trip id="veh83" depart="83.00" from="-87392777#1" to="-836218822#0" type="veh_passenger"/>
    <trip id="veh84" depart="84.00" from="-834277382#2" to="87392379" type="veh_passenger"/>
    <trip id="veh85" depart="85.00" from="-87393497#4" to="87390816#1" type="veh_passenger"/>
    <trip id="veh86" depart="86.00" from="1105888085" to="-1105888074#1" type="veh_passenger"/>
    <trip id="veh87" depart="87.00" from="978495993" to="87390194#2" type="veh_passenger"/>
    <trip id="veh88" depart="88.00" from="87393721#0" to="87392435#2" type="veh_passenger"/>
    <trip id="veh89" depart="89.00" from="87390112#4" to="-833637181" type="veh_passenger"/>
    <trip id="veh90" depart="90.00" from="1016048036" to="-834003928" type="veh_passenger"/>
    <trip id="veh91" depart="91.00" from="-87392014" to="-113868670#1" type="veh_passenger"/>
    <trip id="veh92" depart="92.00" from="-87391383#3" to="87394130#1" type="veh_passenger"/>
    <trip id="veh93" depart="93.00" from="-834289293" to="836218822#1" type="veh_passenger"/>
    <trip id="veh94" depart="94.00" from="87393172#1" to="936198012#1" type="veh_passenger"/>
    <trip id="veh95" depart="95.00" from="1105898949#1" to="834249519" type="veh_passenger"/>
    <trip id="veh96" depart="96.00" from="-629060629#1" to="-87389776#8" type="veh_passenger"/>
    <trip id="veh97" depart="97.00" from="1097531061" to="834285875" type="veh_passenger"/>
    <trip id="veh98" depart="98.00" from="-1101832954" to="505371060#0" type="veh_passenger"/>
    <trip id="veh99" depart="99.00" from="1089368230#3" to="87390595" type="veh_passenger"/>
    <trip id="veh100" depart="100.00" from="-629065173" to="87393470#2" type="veh_passenger"/>
    <trip id="veh101" depart="101.00" from="-1172513740#5" to="-833940262" type="veh_passenger"/>
    <trip id="veh102" depart="102.00" from="340140380#0" to="833928191" type="veh_passenger"/>
    <trip id="veh103" depart="103.00" from="-834249523" to="-541735873" type="veh_passenger"/>
    <trip id="veh104" depart="104.00" from="87391109#0" to="-834282136#0" type="veh_passenger"/>
    <trip id="veh105" depart="105.00" from="340140375#0" to="616138273" type="veh_passenger"/>
    <trip id="veh106" depart="106.00" from="-87392730#0" to="496915278#1" type="veh_passenger"/>
    <trip id="veh107" depart="107.00" from="1091362660#0" to="87392730#2" type="veh_passenger"/>
    <trip id="veh108" depart="108.00" from="-833942574" to="834243069#2" type="veh_passenger"/>
    <trip id="veh109" depart="109.00" from="-834254840" to="-87393145#0" type="veh_passenger"/>
    <trip id="veh110" depart="110.00" from="833600661#0" to="-87389873#1" type="veh_passenger"/>
    <trip id="veh111" depart="111.00" from="-87389658#2" to="834299345" type="veh_passenger"/>
    <trip id="veh112" depart="112.00" from="-1169372531#0" to="1087114230#0" type="veh_passenger"/>
    <trip id="veh113" depart="113.00" from="940274820#1" to="939203349#0" type="veh_passenger"/>
    <trip id="veh114" depart="114.00" from="-1169372534#1" to="-834003923" type="veh_passenger"/>
    <trip id="veh115" depart="115.00" from="-834289293" to="87392686#1" type="veh_passenger"/>
    <trip id="veh116" depart="116.00" from="87390898#3" to="87391124#9" type="veh_passenger"/>
    <trip id="veh117" depart="117.00" from="-87391090#3" to="-833611336#0" type="veh_passenger"/>
    <trip id="veh118" depart="118.00" from="87389727#6" to="833963791" type="veh_passenger"/>
    <trip id="veh119" depart="119.00" from="496915247" to="909605879#0" type="veh_passenger"/>
    <trip id="veh120" depart="120.00" from="742032897" to="-1009783480" type="veh_passenger"/>
    <trip id="veh121" depart="121.00" from="833579405" to="87392830#2" type="veh_passenger"/>
    <trip id="veh122" depart="122.00" from="-541735884#3" to="-541727254#0" type="veh_passenger"/>
    <trip id="veh123" depart="123.00" from="-834321233" to="541727254#2" type="veh_passenger"/>
    <trip id="veh124" depart="124.00" from="833944984" to="-833955394#0" type="veh_passenger"/>
    <trip id="veh125" depart="125.00" from="541735865" to="-834310567#0" type="veh_passenger"/>
    <trip id="veh126" depart="126.00" from="1016445802#2" to="87391801#4" type="veh_passenger"/>
    <trip id="veh127" depart="127.00" from="87390020#4" to="-486194410" type="veh_passenger"/>
    <trip id="veh128" depart="128.00" from="-87392788#4" to="-836210998#0" type="veh_passenger"/>
    <trip id="veh129" depart="129.00" from="541735875" to="-834303441#0" type="veh_passenger"/>
    <trip id="veh130" depart="130.00" from="834015069" to="1411690221#1" type="veh_passenger"/>
    <trip id="veh131" depart="131.00" from="-87392917#0" to="-1013048961" type="veh_passenger"/>
    <trip id="veh132" depart="132.00" from="-1172487993#1" to="87391227#1" type="veh_passenger"/>
    <trip id="veh133" depart="133.00" from="87391468#0" to="1174578656#6" type="veh_passenger"/>
    <trip id="veh134" depart="134.00" from="87389761#2" to="496915258#1" type="veh_passenger"/>
    <trip id="veh135" depart="135.00" from="-854698379" to="87391631#0" type="veh_passenger"/>
    <trip id="veh136" depart="136.00" from="834321235#0" to="87390797#9" type="veh_passenger"/>
    <trip id="veh137" depart="137.00" from="-834277379#1" to="-535882531#1" type="veh_passenger"/>
    <trip id="veh138" depart="138.00" from="834289290" to="87391286#2" type="veh_passenger"/>
    <trip id="veh139" depart="139.00" from="-87392270#3" to="616138276#2" type="veh_passenger"/>
    <trip id="veh140" depart="140.00" from="-629060629#1" to="87392517" type="veh_passenger"/>
    <trip id="veh141" depart="141.00" from="87390467#7" to="87393989#1" type="veh_passenger"/>
    <trip id="veh142" depart="142.00" from="836222062#0" to="87391184#13" type="veh_passenger"/>
    <trip id="veh143" depart="143.00" from="-1087114223#1" to="834277394#1" type="veh_passenger"/>
    <trip id="veh144" depart="144.00" from="-87390059#0" to="87392541#1" type="veh_passenger"/>
    <trip id="veh145" depart="145.00" from="834702576" to="87390862#2" type="veh_passenger"/>
    <trip id="veh146" depart="146.00" from="836222062#0" to="-834321234" type="veh_passenger"/>
    <trip id="veh147" depart="147.00" from="834303438" to="-541636222#1" type="veh_passenger"/>
    <trip id="veh148" depart="148.00" from="87390679#4" to="87390745#1" type="veh_passenger"/>
    <trip id="veh149" depart="149.00" from="-834003927" to="87389779#6" type="veh_passenger"/>
    <trip id="veh150" depart="150.00" from="-87394078#1" to="-87390118#0" type="veh_passenger"/>
    <trip id="veh151" depart="151.00" from="834321234" to="-834254832" type="veh_passenger"/>
    <trip id="veh152" depart="152.00" from="-87389883#2" to="87390868#0" type="veh_passenger"/>
    <trip id="veh153" depart="153.00" from="87393504#2" to="-836222060#1" type="veh_passenger"/>
    <trip id="veh154" depart="154.00" from="615948345" to="-87393323" type="veh_passenger"/>
    <trip id="veh155" depart="155.00" from="87394055#5" to="1172487989" type="veh_passenger"/>
    <trip id="veh156" depart="156.00" from="87392566#2" to="-541727253#2" type="veh_passenger"/>
    <trip id="veh157" depart="157.00" from="87393741#2" to="-833940221" type="veh_passenger"/>
    <trip id="veh158" depart="158.00" from="87393341#0" to="-834311148" type="veh_passenger"/>
    <trip id="veh159" depart="159.00" from="-496915258#0" to="1008042793" type="veh_passenger"/>
    <trip id="veh160" depart="160.00" from="833959014" to="-87390354#0" type="veh_passenger"/>
    <trip id="veh161" depart="161.00" from="416469403#3" to="1101827191#4" type="veh_passenger"/>
    <trip id="veh162" depart="162.00" from="-87391542#3" to="486194406" type="veh_passenger"/>
    <trip id="veh163" depart="163.00" from="-834282128#2" to="834012327" type="veh_passenger"/>
    <trip id="veh164" depart="164.00" from="-1007679016#4" to="87392423" type="veh_passenger"/>
    <trip id="veh165" depart="165.00" from="1097531031#1" to="834249526#1" type="veh_passenger"/>
    <trip id="veh166" depart="166.00" from="834015073#0" to="833891846#0" type="veh_passenger"/>
    <trip id="veh167" depart="167.00" from="-87390941#0" to="-1174578656#1" type="veh_passenger"/>
    <trip id="veh168" depart="168.00" from="833579411" to="-87390863#1" type="veh_passenger"/>
    <trip id="veh169" depart="169.00" from="-87389601#3" to="87390470#2" type="veh_passenger"/>
    <trip id="veh170" depart="170.00" from="833950507" to="-87389883#2" type="veh_passenger"/>
    <trip id="veh171" depart="171.00" from="-87389442#4" to="-87393784#1" type="veh_passenger"/>
    <trip id="veh172" depart="172.00" from="-87392092#0" to="-87389771#2" type="veh_passenger"/>
    <trip id="veh173" depart="173.00" from="-541727241#0" to="-87394122#2" type="veh_passenger"/>
    <trip id="veh174" depart="174.00" from="87392686#2" to="833933204" type="veh_passenger"/>
    <trip id="veh175" depart="175.00" from="87391436#7" to="615948353#1" type="veh_passenger"/>
    <trip id="veh176" depart="176.00" from="-836222062#4" to="1227512773" type="veh_passenger"/>
    <trip id="veh177" depart="177.00" from="-1007332733" to="-87389593#13" type="veh_passenger"/>
    <trip id="veh178" depart="178.00" from="-87392995#2" to="486196066" type="veh_passenger"/>
    <trip id="veh179" depart="179.00" from="-87393470#2" to="-834003928" type="veh_passenger"/>
    <trip id="veh180" depart="180.00" from="1007602481" to="87391693#3" type="veh_passenger"/>
    <trip id="veh181" depart="181.00" from="834321235#0" to="-833870628#0" type="veh_passenger"/>
    <trip id="veh182" depart="182.00" from="-1444397648" to="1105888098" type="veh_passenger"/>
    <trip id="veh183" depart="183.00" from="541727258" to="-87391014#0" type="veh_passenger"/>
    <trip id="veh184" depart="184.00" from="87389442#4" to="834299337" type="veh_passenger"/>
    <trip id="veh185" depart="185.00" from="833600667" to="-834249521#0" type="veh_passenger"/>
    <trip id="veh186" depart="186.00" from="-833940242#0" to="-1089368246" type="veh_passenger"/>
    <trip id="veh187" depart="187.00" from="-834270897" to="1089561928#0" type="veh_passenger"/>
    <trip id="veh188" depart="188.00" from="87390118#19" to="-1390029673" type="veh_passenger"/>
    <trip id="veh189" depart="189.00" from="-87392490" to="627276933" type="veh_passenger"/>
    <trip id="veh190" depart="190.00" from="-833933200#1" to="833950530" type="veh_passenger"/>
    <trip id="veh191" depart="191.00" from="1087114227#2" to="-834277393#0" type="veh_passenger"/>
    <trip id="veh192" depart="192.00" from="750204853" to="-1007929076" type="veh_passenger"/>
    <trip id="veh193" depart="193.00" from="834249526#0" to="836173901" type="veh_passenger"/>
    <trip id="veh194" depart="194.00" from="-486196069" to="-936189037" type="veh_passenger"/>
    <trip id="veh195" depart="195.00" from="1089770145#1" to="-1101832957#4" type="veh_passenger"/>
    <trip id="veh196" depart="196.00" from="-834277373" to="87390481#2" type="veh_passenger"/>
    <trip id="veh197" depart="197.00" from="-87394000" to="87389593#19" type="veh_passenger"/>
    <trip id="veh198" depart="198.00" from="340140382#0" to="87393142#0" type="veh_passenger"/>
    <trip id="veh199" depart="199.00" from="87391124#4" to="615948342#0" type="veh_passenger"/>
    <trip id="veh200" depart="200.00" from="833950505" to="1097531048" type="veh_passenger"/>
    <trip id="veh201" depart="201.00" from="87389683#6" to="122266526#0" type="veh_passenger"/>
    <trip id="veh202" depart="202.00" from="87391337#0" to="834282139#1" type="veh_passenger"/>
    <trip id="veh203" depart="203.00" from="1007904303" to="-834303430" type="veh_passenger"/>
    <trip id="veh204" depart="204.00" from="-834274948#1" to="647831101" type="veh_passenger"/>
    <trip id="veh205" depart="205.00" from="834277375" to="1105898964" type="veh_passenger"/>
    <trip id="veh206" depart="206.00" from="-1172501262" to="-87389539#1" type="veh_passenger"/>
    <trip id="veh207" depart="207.00" from="1097531043#5" to="-832077815" type="veh_passenger"/>
    <trip id="veh208" depart="208.00" from="833940253" to="-1169372533#2" type="veh_passenger"/>
    <trip id="veh209" depart="209.00" from="-87392303#3" to="1172507346" type="veh_passenger"/>
    <trip id="veh210" depart="210.00" from="-87392521#1" to="-833959021#0" type="veh_passenger"/>
    <trip id="veh211" depart="211.00" from="-87392730#5" to="87391795#5" type="veh_passenger"/>
    <trip id="veh212" depart="212.00" from="244227726#1" to="833950529#1" type="veh_passenger"/>
    <trip id="veh213" depart="213.00" from="-87391395" to="-1008042787" type="veh_passenger"/>
    <trip id="veh214" depart="214.00" from="-87390585#1" to="834303434" type="veh_passenger"/>
    <trip id="veh215" depart="215.00" from="87390164#3" to="87393232#1" type="veh_passenger"/>
    <trip id="veh216" depart="216.00" from="-87392714" to="834285037#2" type="veh_passenger"/>
    <trip id="veh217" depart="217.00" from="1101822583#2" to="541727243#5" type="veh_passenger"/>
    <trip id="veh218" depart="218.00" from="-87393265#0" to="-1089561933" type="veh_passenger"/>
    <trip id="veh219" depart="219.00" from="-87390158#2" to="833940227" type="veh_passenger"/>
    <trip id="veh220" depart="220.00" from="-913903362" to="-616138277#2" type="veh_passenger"/>
    <trip id="veh221" depart="221.00" from="-87391783#2" to="386833314" type="veh_passenger"/>
    <trip id="veh222" depart="222.00" from="-1087984862#1" to="773691275#3" type="veh_passenger"/>
    <trip id="veh223" depart="223.00" from="-615948332" to="1087984862#2" type="veh_passenger"/>
    <trip id="veh224" depart="224.00" from="-1095438802" to="-87392526#1" type="veh_passenger"/>
    <trip id="veh225" depart="225.00" from="-833950527" to="-87390797#3" type="veh_passenger"/>
    <trip id="veh226" depart="226.00" from="834270900#0" to="-87392526#1" type="veh_passenger"/>
    <trip id="veh227" depart="227.00" from="834252243" to="87390118#6" type="veh_passenger"/>
    <trip id="veh228" depart="228.00" from="-834277392#1" to="-323999661" type="veh_passenger"/>
    <trip id="veh229" depart="229.00" from="-1016784816" to="1172494382" type="veh_passenger"/>
    <trip id="veh230" depart="230.00" from="985540780" to="-87391475#0" type="veh_passenger"/>
    <trip id="veh231" depart="231.00" from="627276943#1" to="836216121" type="veh_passenger"/>
    <trip id="veh232" depart="232.00" from="629060629#0" to="834303440" type="veh_passenger"/>
    <trip id="veh233" depart="233.00" from="87392915#2" to="-833950520" type="veh_passenger"/>
    <trip id="veh234" depart="234.00" from="-1016786233" to="-833600662" type="veh_passenger"/>
    <trip id="veh235" depart="235.00" from="-541727234" to="833887546" type="veh_passenger"/>
    <trip id="veh236" depart="236.00" from="833933202" to="836170109" type="veh_passenger"/>
    <trip id="veh237" depart="237.00" from="-833567110#1" to="541735867#1" type="veh_passenger"/>
    <trip id="veh238" depart="238.00" from="834249513" to="-541727251#1" type="veh_passenger"/>
    <trip id="veh239" depart="239.00" from="-496915251#0" to="-1089368251" type="veh_passenger"/>
    <trip id="veh240" depart="240.00" from="-87389593#14" to="833933204" type="veh_passenger"/>
    <trip id="veh241" depart="241.00" from="87393210" to="-87393232#0" type="veh_passenger"/>
    <trip id="veh242" depart="242.00" from="833639570#2" to="627249329#0" type="veh_passenger"/>
    <trip id="veh243" depart="243.00" from="-470700509#2" to="836208608" type="veh_passenger"/>
    <trip id="veh244" depart="244.00" from="87390118#24" to="541727231" type="veh_passenger"/>
    <trip id="veh245" depart="245.00" from="-541636220" to="87394113#7" type="veh_passenger"/>
    <trip id="veh246" depart="246.00" from="834299338" to="-87391425#2" type="veh_passenger"/>
    <trip id="veh247" depart="247.00" from="-87392930#5" to="-87392270#0" type="veh_passenger"/>
    <trip id="veh248" depart="248.00" from="1089368244#0" to="-87391184#2" type="veh_passenger"/>
    <trip id="veh249" depart="249.00" from="87390118#16" to="87389891" type="veh_passenger"/>
    <trip id="veh250" depart="250.00" from="-486194445#1" to="87393470#2" type="veh_passenger"/>
    <trip id="veh251" depart="251.00" from="541735872" to="87390090#1" type="veh_passenger"/>
    <trip id="veh252" depart="252.00" from="833940255#0" to="1008398952" type="veh_passenger"/>
    <trip id="veh253" depart="253.00" from="-834303440" to="87389680#6" type="veh_passenger"/>
    <trip id="veh254" depart="254.00" from="1097531029" to="1091358364" type="veh_passenger"/>
    <trip id="veh255" depart="255.00" from="-87393259#3" to="834274947" type="veh_passenger"/>
    <trip id="veh256" depart="256.00" from="-834303430" to="87390572#1" type="veh_passenger"/>
    <trip id="veh257" depart="257.00" from="87389684" to="-401434285#2" type="veh_passenger"/>
    <trip id="veh258" depart="258.00" from="87390905#2" to="-834277393#0" type="veh_passenger"/>
    <trip id="veh259" depart="259.00" from="-908284637#2" to="587738113" type="veh_passenger"/>
    <trip id="veh260" depart="260.00" from="-87391383#3" to="-1089561929#1" type="veh_passenger"/>
    <trip id="veh261" depart="261.00" from="87390118#6" to="-833940247#3" type="veh_passenger"/>
    <trip id="veh262" depart="262.00" from="-833950528#1" to="87389494#1" type="veh_passenger"/>
    <trip id="veh263" depart="263.00" from="-87390249#1" to="87391159#4" type="veh_passenger"/>
    <trip id="veh264" depart="264.00" from="833940224" to="-836210997" type="veh_passenger"/>
    <trip id="veh265" depart="265.00" from="-1009915275" to="87393081" type="veh_passenger"/>
    <trip id="veh266" depart="266.00" from="1016445802#2" to="834321240#0" type="veh_passenger"/>
    <trip id="veh267" depart="267.00" from="833639570#2" to="833565228#0" type="veh_passenger"/>
    <trip id="veh268" depart="268.00" from="1016782942" to="839995089#1" type="veh_passenger"/>
    <trip id="veh269" depart="269.00" from="-389383181#3" to="-834246971" type="veh_passenger"/>
    <trip id="veh270" depart="270.00" from="833870628#0" to="-87390118#22" type="veh_passenger"/>
    <trip id="veh271" depart="271.00" from="1390029674" to="1089368257#2" type="veh_passenger"/>
    <trip id="veh272" depart="272.00" from="1095438772#0" to="-936189984#1" type="veh_passenger"/>
    <trip id="veh273" depart="273.00" from="834243069#0" to="-87390898#0" type="veh_passenger"/>
    <trip id="veh274" depart="274.00" from="-834277390#1" to="-541735875" type="veh_passenger"/>
    <trip id="veh275" depart="275.00" from="-833926139" to="-541735872" type="veh_passenger"/>
    <trip id="veh276" depart="276.00" from="-833639570#2" to="-834012330" type="veh_passenger"/>
    <trip id="veh277" depart="277.00" from="1016016990" to="834264167#1" type="veh_passenger"/>
    <trip id="veh278" depart="278.00" from="87393953" to="1112354367" type="veh_passenger"/>
    <trip id="veh279" depart="279.00" from="-833933198" to="-834254832" type="veh_passenger"/>
    <trip id="veh280" depart="280.00" from="833926131" to="-616138215#0" type="veh_passenger"/>
    <trip id="veh281" depart="281.00" from="87390569" to="1091641424#3" type="veh_passenger"/>
    <trip id="veh282" depart="282.00" from="87390692" to="455566488" type="veh_passenger"/>
    <trip id="veh283" depart="283.00" from="-936189985#3" to="1014222598" type="veh_passenger"/>
    <trip id="veh284" depart="284.00" from="-833637180" to="-1105888094" type="veh_passenger"/>
    <trip id="veh285" depart="285.00" from="87392730#10" to="1089568182#2" type="veh_passenger"/>
    <trip id="veh286" depart="286.00" from="87389547#1" to="-87393326#9" type="veh_passenger"/>
    <trip id="veh287" depart="287.00" from="-1172487929" to="627276933" type="veh_passenger"/>
    <trip id="veh288" depart="288.00" from="-1097531070" to="-833590277#1" type="veh_passenger"/>
    <trip id="veh289" depart="289.00" from="113878096#4" to="-87390059#1" type="veh_passenger"/>
    <trip id="veh290" depart="290.00" from="936189037" to="-541735867#0" type="veh_passenger"/>
    <trip id="veh291" depart="291.00" from="834274949#2" to="541727262" type="veh_passenger"/>
    <trip id="veh292" depart="292.00" from="834310557" to="-834249526#0" type="veh_passenger"/>
    <trip id="veh293" depart="293.00" from="-87393479#2" to="87390797#5" type="veh_passenger"/>
    <trip id="veh294" depart="294.00" from="913897720#0" to="-87390118#11" type="veh_passenger"/>
    <trip id="veh295" depart="295.00" from="538102186#0" to="541735885#1" type="veh_passenger"/>
    <trip id="veh296" depart="296.00" from="834012325" to="87393065#1" type="veh_passenger"/>
    <trip id="veh297" depart="297.00" from="-833944986#1" to="-833991618" type="veh_passenger"/>
    <trip id="veh298" depart="298.00" from="833567110#0" to="-833605588" type="veh_passenger"/>
    <trip id="veh299" depart="299.00" from="326170655" to="-87389658#3" type="veh_passenger"/>
    <trip id="veh300" depart="300.00" from="833940238" to="1016830796" type="veh_passenger"/>
    <trip id="veh301" depart="301.00" from="833632541" to="87392383#5" type="veh_passenger"/>
    <trip id="veh302" depart="302.00" from="833570042" to="87392714" type="veh_passenger"/>
    <trip id="veh303" depart="303.00" from="-87392848#3" to="1172513740#3" type="veh_passenger"/>
    <trip id="veh304" depart="304.00" from="627249329#8" to="87391844#9" type="veh_passenger"/>
    <trip id="veh305" depart="305.00" from="87389635#4" to="-1240387178" type="veh_passenger"/>
    <trip id="veh306" depart="306.00" from="-833565224" to="-87390158#1" type="veh_passenger"/>
    <trip id="veh307" depart="307.00" from="834249515" to="401451307#1" type="veh_passenger"/>
    <trip id="veh308" depart="308.00" from="-836210996#1" to="-615948344#0" type="veh_passenger"/>