<?xml version="1.0" encoding="UTF-8"?>

<!-- generated on 2025-11-19 00:45:29.952914 by randomTrips.py UNKNOWN
<configuration>
    <net-file value="TestLightsSogamosoNet.net.xml"/>
    <output-trip-file value="osm.passenger.trips.xml"/>
    <prefix value="veh"/>
    <vehicle-class value="passenger"/>
    <fringe-factor value="5"/>
</configuration>
-->

<!-- generated on 2025-11-19 00:45:21 by Eclipse SUMO duarouter Version 1.24.0
<duarouterConfiguration xmlns:xsi="http://www.w3.org/2001/XMLSchema-instance" xsi:noNamespaceSchemaLocation="http://sumo.dlr.de/xsd/duarouterConfiguration.xsd">

    <input>
        <net-file value="TestLightsSogamosoNet.net.xml"/>
        <route-files value="osm.passenger.trips.xml"/>
    </input>

    <output>
        <output-file value="routes.rou.xml"/>
        <alternatives-output value="NUL"/>
    </output>

    <time>
        <begin value="0"/>
        <end value="3600.0"/>
    </time>

    <report>
        <no-warnings value="true"/>
        <ignore-errors value="true"/>
        <no-step-log value="true"/>
    </report>

</duarouterConfiguration>
-->

<routes xmlns:xsi="http://www.w3.org/2001/XMLSchema-instance" xsi:noNamespaceSchemaLocation="http://sumo.dlr.de/xsd/routes_file.xsd">
    <vType id="veh_passenger" vClass="passenger"/>
    <vehicle id="veh0" type="veh_passenger" depart="0.00">
        <route edges="615948339#1 -834289291 -629060629#0 87393989#3 87393989#4 87393989#5 87393989#6 87393989#8 913896419 913896418 913897052 913897722#0 913897722#1 340140373 1169371944#0 913898536#0 913898536#1 1089563432 340140375#0 340140375#1 1105898944 340140377 1105898943 936574255 1089561452#0 1089561452#1 87393201 1169375482#0 1169375482#1 1091361984 87389640#0 87389640#1 1095438767 1095438768 1095438769 1095438771#0 1095438771#1 254753595 1112351473 1095438772#0 1095438772#1 1095438773#0 1095438773#1 833905122 627276961 406320075 1095438774 1172487928 406320073#0 406320073#1 406320073#2 406320073#3 406320073#4 406320073#5 87390204#0 87390204#1 87390204#2 87390204#3 939230033 913906200#0 913906200#1 913900806 87389436#0 87389436#1 87389436#2 87389436#3 87389436#4 87389436#5 1101827191#0 1101827191#1 1101827191#2 1101827191#3 1101827191#4 1101827191#5 940274820#1 940274820#2 1009920073#1 1105888094 486196065 -1089368247#5"/>
    </vehicle>
    <vehicle id="veh1" type="veh_passenger" depart="1.00">
        <route edges="-834323185#1 -834323185#0 834323186#1 -1110409466#1 -1110409466#0 -87389593#22 1411690216 294434077#1 87390769#1 87393008#1 87393008#2 87393008#3 87393008#4 1016445801#1 1016445801#2 1016445801#3 1016445801#4 1169371947 1097531035 1097531034 870458226 1097531033#2 1016444622 87393154#0 87393154#1 87393154#2 87393154#3 87390595 1089770138 1172507903 1105898950 541636234 1089563424 1089770143 1105898949#0 1105898949#1 1105898949#2 1105898948 1105898947 87392257#1 87392257#2 1105898946 1105898945 87390041#0 87390041#1 1169375481 1087114225 406320072 1089561454 1097531054 1087114224 87389753 1089368217 340140375#0 340140375#1 -834249514"/>
    </vehicle>
    <vehicle id="veh2" type="veh_passenger" depart="2.00">
        <route edges="833991623#0 833991623#1 87390481#0 87390481#1 87390481#2 87391599#0 87391599#1 87391599#2 87389768#0 87389768#1 87389768#2 87390785#0 87394125 1092948974#0 1092948974#1 1091356536 1091356535 1089563431 87394054 1169371529 340140380#0 340140380#1 340140380#2 340140380#3 1164108499 870458227 1091362658#0 1091362658#1 1089563420 870456597 1169371947 870457666 340140382#0 340140382#1 340140382#2 1097531036 1097531037 1097531038 1097531039 1097531042#0 1097531042#1 1097531042#2 1097531042#3 1097531044 1097531043#0 1097531043#1 1097531043#2 1097531043#3 1097531043#4 1097531043#5 1097531043#6 1097531043#7 1097531043#8 294434025#1 294434025#2 294434025#3 294434025#4 294434022#1 294434022#2 294434022#4 -616138235#1 833933201"/>
    </vehicle>
    <vehicle id="veh3" type="veh_passenger" depart="3.00">
        <route edges="87391151#2 -113870449#4 -113870449#3 -113870449#2 -113870449#1 -113870449#0 939203350#3 87393434 863696829#0 863696829#1 863696829#2 87390464 406320071#1 406320071#2 406320071#3 406320076#1 406320076#2 406320076#3 406320076#4 406320076#5 406320076#6 627276963#0 627276963#1 -1095438773#1 -1095438773#0 -1095438772#1 -1095438772#0 -1112351473 -254753595 87390701#0 87390701#1 87390701#2 87390701#3 87390701#4 87390701#5 1112351472 -87393128#9 -87393128#8 -87393128#7 -87393128#6 -401434291#3 -401434287#2 -401434287#1"/>
    </vehicle>
    <vehicle id="veh4" type="veh_passenger" depart="4.00">
        <route edges="-87392777#2 113878096#3 113878096#4 406320073#4 406320073#5 254753596#0 254753596#1 254753596#2 254753596#3 254753596#4 254753596#5 254753596#6 254753596#7 254753596#8 254753596#9 -87392543#1 -87392543#0 1089368232#0 1089368232#1 1089368232#2 87389776#0 87389776#1 87389776#2 87389776#4 87389776#5 87389776#6 87389627#3 1169372531#2 -1089568180#1"/>
    </vehicle>
    <vehicle id="veh5" type="veh_passenger" depart="5.00">
        <route edges="-833959021#1 -833959021#0 833959021#0 833959021#1 833959021#2 833959021#3 -87392686#2 -87392686#1 -87392686#0 -1105898970 -1105898969 -87392354#1 -87392354#0 87390526 627276943#1 627276943#2 87389813#3 -1169371531 -87392501 87390694 1089568192 1091362668 627276950#0 627276950#1 833625256#1 1105888083 1105888084 1096782525 1091356540#0 87390405#0 87390405#3 87390405#4 87390405#5 87390405#6 87390405#7 1087984858 1095438762 1097531057 1016550049#1 1016550049#2 1097531056 350346291 1097531055 1095438763#0 1095438764 1095438765 1095438766 1087114225 406320072 1089561454 1097531054 1087114224 87389753 1089368217 1091358365 913898538 87390337#1 87390337#2 913897720#0 913897720#1 913897053#0 913897053#1 913897053#2 913896871#0 913896871#1 913896870 936573884 834264812 87389550 1097531052 1097531053"/>
    </vehicle>
    <vehicle id="veh6" type="veh_passenger" depart="6.00">
        <route edges="-1087114241#1 -833590281#1 -496915278#1 -496915278#0 1087114240#2 87393629#0 87393629#1 87393629#2 87393629#3 87393629#4 -87391844#10 -87391844#9 -87391844#8 -87391844#7 -87391844#6 87390489#2 87390489#3 87390489#4 939203350#0 939203350#2 939203350#3 87393434 863696829#0 863696829#1 863696829#2 87390464 406320071#1 406320071#2 406320071#3 87390204#0 87390204#1 87390204#2 87390204#3 87390204#6 87390204#7 936198012#0 936198012#1 936198011 1089561932#1 87390123#0 87390123#1 1089561933 1227512773 87390536#1 87390536#2 -627276937#1 -627276937#0 -87393976#1 -833950517"/>
    </vehicle>
    <vehicle id="veh7" type="veh_passenger" depart="7.00">
        <route edges="627276942 401451305#1 -1097531043#6 -1097531043#5 -1097531043#4 -1097531043#3 -1097531043#2 -1097531043#1 -1097531043#0 -1097531044 -1097531042#3 -1097531042#2 -1097531042#1 -1097531042#0 -1097531039 -1097531038 -1097531037 -1097531036 -340140382#2 -340140382#1 870463612#0 870463612#1 1097531033#2 1016444622 87393154#0 87393154#1 87393154#2 87393154#3 87390595 87391597 833907722#1 87393621 87390223 1089563429#0 1089563429#1 87391904#1 833625255#0 833625255#1 87389468#0 87389468#1 87389468#2 87389468#3 87389468#4 87389468#5 87389468#6 350346293#0 350346293#1 350346293#2 833625257 833625257-AddedOffRampEdge 935758788 1273491272 87391026 -541636197 -87394110#0 -87390694 87392501 1172516042"/>
    </vehicle>
    <vehicle id="veh8" type="veh_passenger" depart="8.00">
        <route edges="-833977499#1 -833977499#0 -538102171#4 -538102171#3 -538102171#2 -538102171#1 -538102171#0 -538102160#0 538102160#0"/>
    </vehicle>
    <vehicle id="veh9" type="veh_passenger" depart="9.00">
        <route edges="836217509#1 1009885019 -1009885019 87390812#0 87390812#1 1182585615#0 1182585615#1 1089368236#0 1089368236#1 1089368236#2 1091358366#0 1091358366#1 1089368240#0 1089368240#1 1089368240#2 1089368240#3 1089368240#4 1089368240#5 1089368240#6 406320076#1 406320076#2 406320076#3 406320076#4 406320076#5 406320076#6 631979162#0 631979162#1 631979162#2 1095438775#0 1095438775#1 1095438775#2 1095438776 87392666 1095438778 1095438779 1016444619 1016444624#1 1016444624#2 1016444624#3 87394133#4 87394133#5 87394133#6 87394133#7 -1008406071"/>
    </vehicle>
    <vehicle id="veh10" type="veh_passenger" depart="10.00">
        <route edges="836208607 -627888641 939771725#1 939771725#2 1091356541#1 1105888112 1105888111 1105888110#0 1105888109 1105888108 1105888107 1105888106 1105888104 1105888103 1105888102 1105888101 627819469 1105888100 1105888099 1105888098 1105888097 940549977 1105888096 -87392225#1 -87392225#0 -1105888095 -486196065 -1105888094 486196064#0 940275700#0 1089368241#1 1089368241#2 1089368241#3 1182585615#0 1182585615#1 1089368236#0 1089368236#1 1089368236#2 1091358366#0 1091358366#1 1089368240#0 1089368240#1 1089368240#2 1089368240#3 1089368240#4 1089368240#5 1089368240#6 87390204#0 87390204#1 87390204#2 87390204#3 913900804 1105888086 1105888085 833624302 1105888084 1007659499 1089568191 1089568190 87390386#0 833955389"/>
    </vehicle>
    <vehicle id="veh11" type="veh_passenger" depart="11.00">
        <route edges="-87390249#0 -834005462 834005462 87390249#0 87390249#1 -1172508346 541727246#0 541727246#1 -87390333#1 -87390333#0 749232498 1087114229 87390321 1311142900 87391644 1087984859#0 1087984859#1 1087984859#2 1169371691#0 1169371691#1 254753595 1112351473 1095438772#0 1095438772#1 1095438773#0 1095438773#1 833905122 627276961 406320075 1095438774 1172487928 406320073#0 406320073#1 406320073#2 406320073#3 406320073#4 406320073#5 87390204#0 -833605583"/>
    </vehicle>
    <vehicle id="veh12" type="veh_passenger" depart="12.00">
        <route edges="87393172#0 -87390118#11 87389486 406320071#1 406320071#2 406320071#3 87390204#0 87390204#1 87390204#2 87390204#3 87390204#6 87390204#7 936198012#0 936198012#1 936198011 1089561932#1 87390123#0 87390123#1 1089561933 1091346387 1105898929 1105898928#0 1105898928#1 1105898927 -87390397#2 -87390397#1 -87390397#0 -1107855713 -627276940#1 -627276940#0 87391539 1105898960 1105898959 1107855714 87393326#0 87393326#1 87391090#0 -87391090#0"/>
    </vehicle>
    <vehicle id="veh13" type="veh_passenger" depart="13.00">
        <route edges="-389383179 -1105898934 1105898934 389383179 -1105898933 -87392251#2 -87392251#1 -496915272#1 -496915272#0"/>
    </vehicle>
    <vehicle id="veh14" type="veh_passenger" depart="14.00">
        <route edges="87390070#2 87393989#5 87393989#6 87393989#8 913896419 913896418 913897052 913897722#0 913897722#1 340140373 1169371944#0 913898536#0 913898536#1 1089563432 1091358364 87393823#0 87393823#1 87393823#2 -401451311#1 1091358379 -1089368251 -1095431349#4 -1095431349#3 -1095431349#2 -1095431349#1 -1095431349#0 -1089368252#5 -1089368252#4 -1089368252#3 -1089368252#2 -1089368252#1 -1089368252#0 541727247#0"/>
    </vehicle>
    <vehicle id="veh15" type="veh_passenger" depart="15.00">
        <route edges="836210997 -87393127#0 -87390248#0 940549977 1105888096 -87392225#1 -87392225#0 -1105888095 -486196065 -1105888094 486196064#0 940275700#0 1089368241#1 1089368241#2 1089368241#3 1182585615#0 1182585615#1 1089368236#0 1089368236#1 1089368236#2 1091358366#0 1091358366#1 1089368240#0 1089368240#1 1089368240#2 1089368240#3 1089368240#4 1089368240#5 1089368240#6 406320076#1 406320076#2 406320076#3 406320076#4 406320076#5 406320076#6 627276963#0 627276963#1 -1095438773#1 -1095438773#0 -1095438772#1 -1095438772#0 -1112351473 -254753595 87390701#0 87390701#1 87390701#2 87390701#3 87390701#4 87390701#5 1105898946 1105898945 87390041#0 87390041#1 1169375481 1089368255#0 1089368255#1 87390065 1169375480 1022235289 834015075 -541727245 -1095431347#1 -1095431347#0 -541727254#8 -541727254#7 -541727254#6 -541727254#5 -541727254#4 -541727254#3 -541727254#2 -541727254#1 -541727254#0 -834243061#0 -87391184#19 -87391184#17 -87391184#16 -87391184#15 -87391184#14 -87391184#13 -87391184#12 -87391184#10 -87391184#9 834274943"/>
    </vehicle>
    <vehicle id="veh16" type="veh_passenger" depart="16.00">
        <route edges="1095438820#2 -1095438820#2 -1095438820#1 -1101826163#3 -1101826163#2 -1101826163#1 -1101826163#0 1087114238#0 1087114238#1 1089568183#0 1089568183#1 939203349#0 939203349#1 939203349#2 939203350#0 939203350#2 939203350#3 87393434 863696829#0 863696829#1 863696829#2 87390464 406320071#1 406320071#2 406320071#3 87390204#0 87390204#1 87390204#2 87390204#3 87390204#6 87390204#7 936198012#0 936198012#1 936198011 1089561932#1 87390123#0 87390123#1 1089561933 1091346387 1105898929 1105898928#0 1105898928#1 1105898927 1105898926#0 1105898926#1 1105898925 -87390868#1 -87390868#0 -1097531072#1 87393953"/>
    </vehicle>
    <vehicle id="veh17" type="veh_passenger" depart="17.00">
        <route edges="87389680#3 87389680#4 87389680#5 87389680#6 87389680#7 1016444619 1016444624#1 1016444624#2 1016444624#3 1016444624#5 1095431352 1172485776 1091362659 870458227 1091362658#0 1091362658#1 1089563420 870456597 1169371947 870457666 340140382#0 340140382#1 340140382#2 1097531036 1097531037 1097531038 1097531039 1097531042#0 1097531042#1 1097531042#2 1097531042#3 1097531044 1097531043#0 1097531043#1 1097531043#2 1097531043#3 1097531043#4 1097531043#5 1097531043#6 1097531043#7 1097531043#8 294434025#1 294434025#2 294434025#3 294434025#4 294434022#1 294434022#2 294434022#4 496915263 -87389593#14 834321206 616138215#1"/>
    </vehicle>
    <vehicle id="veh18" type="veh_passenger" depart="18.00">
        <route edges="87390413#0 833624298 350346293#2 833625257 833625257-AddedOffRampEdge 935758788 935758787 254750535 1091346384 1089561932#0 1089561932#1 87390123#0 87390123#1 1089561933 627265501#0 627265501#1 627265501#2 615948347#0 615948347#1 486194421#0"/>
    </vehicle>
    <vehicle id="veh19" type="veh_passenger" depart="19.00">
        <route edges="833940247#0 -833940247#0 1089561929#1 1089561929#2 1089561929#3 87392435#0 87392435#2 87392435#3 1089770145#0 1089770145#1 1169371942#1 1169371941 87392546#0 87392546#1 87392546#2 87392546#3 87392546#4 -834285874 -1172491012 -1097531050"/>
    </vehicle>
    <vehicle id="veh20" type="veh_passenger" depart="20.00">
        <route edges="-1172513740#1 1172513740#1 1172513740#2 1172513740#3 1172513740#5 1172513740#6 1172513740#7 87391184#2 87391184#3 87391184#4 87391184#6 87391184#7 87391184#8 87391184#9 87391184#10 87391184#12 87391184#13 87391184#14 87391184#15 87391184#16 87391184#17 87391184#19 834243061#0 834243061#1 541727254#1 541727254#2 541727254#3 541727254#4 541727254#5 541727254#6 541727254#7 541727254#8 1095431347#0 1095431347#1 541727245 -541727257 87389715 1172508344 1087114226#0 1087114226#1 406320072 1089561454 1097531054 1087114224 87389753 1089368217 1091358365 913898538 87390337#1 87390337#2 913897720#0 913897720#1 913897053#0 913897053#1 913897053#2 913896869#0 -834264170#2 -834264170#1 -834264170#0"/>
    </vehicle>
    <vehicle id="veh21" type="veh_passenger" depart="21.00">
        <route edges="-455566491#2 -455566491#1 455566491#1 455566491#2 455566491#3 -87389627#5 -87389627#4 -87389627#3 -87389776#6 -87389776#5 -87389776#4 -87389776#2 -87389776#1 -87389776#0 -1089368232#2 -1089368232#1 -1089368232#0 1089368233 -87393395#2 -87393395#1 -87393395#0 1089368235#2 1089368235#3 1089368235#4 1182585617 1172503746 1089368242#0 1089368242#1 1089368242#2 1089368242#3 1089368242#4 1089368242#5 940274820#1 940274820#2 1009920073#1 1105888094 486196065 1105888095 87392225#0 -836214669"/>
    </vehicle>
    <vehicle id="veh22" type="veh_passenger" depart="22.00">
        <route edges="541735872 836211571#10 -87390687#1 457210946 87391693#1 -1089561458#4 -1089561458#3 -1089561458#2 -1089561458#1 -1089561458#0 87391631#0 87391631#2 87391631#3 87391631#5 1089561444 1172493610 1182585615#0 1182585615#1 1089368236#0 1089368236#1 1089368236#2 1091358366#0 1091358366#1 1089368240#0 1089368240#1 1089368240#2 1089368240#3 1089368240#4 1089368240#5 1089368240#6 87390204#0 87390204#1 87390204#2 87390204#3 87390204#6 87390204#7 936198012#0 936198012#1 936198011 1089561932#1 87390123#0 87390123#1 1089561933 1227512773 87390536#1 87390536#2 -627276937#1 -627276937#0 -87393976#1 -87393976#0 87392501 1172516042 -87389813#3 -627276943#2 -627276943#1 -627276943#0 87392354#0 87392354#1 1105898969 1105898970 1105898971 833960562#0 833960562#1 -87391974#1 -87391974#0"/>
    </vehicle>
    <vehicle id="veh23" type="veh_passenger" depart="23.00">
        <route edges="-87391118#0 87391118#0 87391118#1 87391118#2 -87393097 -834285873#1 -834285873#0 -87390614#3 -87390614#2 -87390614#0 -1097531052 -87389550 -834264812 -936573884 913896418 913897052 913897722#0 913897722#1 340140373 1169371944#0 913898536#0 913898536#1 1089563432 340140375#0 340140375#1 1105898944 340140377 1105898943 936574255 1089561452#0 1089561452#1 87393201 1169375482#0 1169375482#1 541636201 1169372532#0 1169372532#1 1087984860#0 1087984860#1 1087984860#2 1087984860#3 1087984860#4 1087984860#5 1087984859#0 1087984859#1 1087984859#2 87389857#0 87389857#1 87389857#2 87389857#3 1092948975#0 1092948975#1 1105898930#0 1089580791#0 1087114233 1091358375 1089568191 1089568190 87390386#0 87390386#1 87390386#2 -87389813#3 -627276943#2 -627276943#1 -627276943#0 87392354#0 87392354#1 1105898969 1105898970 1105898971 1105898973 1105898972 833959016#0 833959016#1 -833977490"/>
    </vehicle>
    <vehicle id="veh24" type="veh_passenger" depart="24.00">
        <route edges="-834299345 87392896#5 87392896#6 87392896#8 -87392521#1 -1091358380#9 -1091358380#8 -1091358380#7 -1091358380#6 -1091358380#4 -1091358380#2 -1091358380#1 -1091358380#0 -87391383#6 -87391383#5 -87391383#4 -87391383#3 -87391383#2 -87391383#1 -87391383#0 -1172503318 -1101817936 -87393089#2 -87393089#1 -87393089#0 -1088690946#1 -1088690946#0 -1091358364 340140375#0 340140375#1 1105898944 340140377 1105898943 936574255 1089561452#0 1089561452#1 87393201 1169375482#0 1169375482#1 1091361984 87389640#0 87389640#1 1095438767 1095438768 1095438769 1095438771#0 1095438771#1 254753595 1112351473 1095438772#0 1095438772#1 1095438773#0 1095438773#1 833905122 627276961 406320075 1095438774 1172487928 406320073#0 406320073#1 406320073#2 406320073#3 406320073#4 87391835 87392777#1 87392777#2"/>
    </vehicle>
    <vehicle id="veh25" type="veh_passenger" depart="25.00">
        <route edges="627249330#0 627249330#1 627249330#2 627249330#3 87392242#2 -87390679#7 -87390679#6 -87390679#5 -87390679#4 -87390679#3 -87390679#2 -87390679#1 -87390679#0 -1172494775#1 -1172494775#0 -1172494776#6 -1172494776#5 -1172494776#3 -1172494776#1 -87392521#1 -1091358380#9 -1091358380#8 -1091358380#7 -1091358380#6 -1091358380#4 -1091358380#2 -1091358380#1 -1091358380#0 -87391383#6 -87391383#5 -87391383#4 -87391383#3 -87391383#2 -87391383#1 -87391383#0 -1172503318 -1101817936 -87393089#2 -87393089#1 -87393089#0 -1088690946#1 -1088690946#0 -1091358364 340140375#0 340140375#1 1105898944 340140377 1105898943 936574255 1089561452#0 1089561452#1 87393201 1169375482#0 1169375482#1 1091361984 87389727#0 87389727#2 87389727#3 87389727#4 87389727#5 87389727#6 87389727#7 1089770141 1089770144 340132535#0 340132535#1 340132535#2 340132535#3 1169371528 1089563430 1095431350 1089770137 1089770132 87391871#1 87392666 1095438778 1095438779 1172507351#0 1172507351#1 87389975#0 87389975#1 87389975#2 1089368221#0 1089368221#1 87391844#5 87391844#6 87391844#7 87391844#8 87391844#9 87391844#10 -87393629#4 -87393629#3 -87393629#2 -87393629#1 -87393629#0 -1087984864#2 541735884#2"/>
    </vehicle>
    <vehicle id="veh26" type="veh_passenger" depart="26.00">
        <route edges="-833579408 -87391822#9 -87391822#6 486194436#0 486194436#1 1089368236#1 1089368236#2 1091358366#0 1091358366#1 1089368240#0 1089368240#1 1089368240#2 1089368240#3 1089368240#4 1089368240#5 1089368240#6 406320076#1 406320076#2 406320076#3 406320076#4 406320076#5 406320076#6 627276963#0 627276963#1 -1095438773#1 -1095438773#0 -1095438772#1 -1095438772#0 -1112351473 -254753595 87390701#0 87390701#1 87390701#2 87390701#3 87390701#4 87390701#5 1105898946 1105898945 87390041#0 87390041#1 1169375481 1087114225 406320072 1089561454 1097531054 1087114224 87389753 1089368217 1091358364 1088690946#0 1088690946#1 87393089#0 87393089#1 87393089#2 1101817936 87391795#0 87391795#1 87391795#2 87391795#3 87391795#5 -541727255#1 834270907"/>
    </vehicle>
    <vehicle id="veh27" type="veh_passenger" depart="27.00">
        <route edges="-773691276 -833616638 -87389776#1 -87389776#0 -1089368232#2 -1089368232#1 -1089368232#0 87392543#0 87392543#1 1091358366#0 1091358366#1 1089368240#0 1089368240#1 1089368240#2 1089368240#3 1089368240#4 1089368240#5 1089368240#6 406320076#1 406320076#2 406320076#3 406320076#4 406320076#5 406320076#6 627276963#0 627276963#1 -1095438773#1 -1095438773#0 -1095438772#1 -1095438772#0 -1112351473 -254753595 87390701#0 87390701#1 87390701#2 87390701#3 87390701#4 87390701#5 1105898946 1105898945 87390041#0 87390041#1 1169375481 1087114225 406320072 1089561454 1097531054 1087114224 87389753 1089368217 1091358365 913898538 87390337#1 87390337#2 913897720#0 913897720#1 913897053#0 913897053#1 913897053#2 913896871#0 913896871#1 913896870 913896420#0 913896420#1 87390070#0 87390070#1 87390070#2 87390070#3 87390967#0 87390967#1 87390967#2 87393660#0 87393660#1 87393660#2 834306888 1415057357 1172494778#0 1172494778#1 1172494779#0 1172494779#1 340140388 87390881 87393964 87391458 87392242#0 87392242#1 -627249330#3 -87392535"/>
    </vehicle>
    <vehicle id="veh28" type="veh_passenger" depart="28.00">
        <route edges="1105898962 -87389725#2 -87389725#0 -1107855715#0 -1107855714 -1105898959 -1105898960 -87391539 -87390563 -1105898958 87390694 1089568192 1091362668 627276950#0 627276950#1 833625256#1 1105888083 1105888082#0 1105888082#1 254751095 87390320 1105888081 1091356535 1089563431 87394054 1169371529 340140380#0 340140380#1 340140380#2 340140380#3 1164108499 870458227 1091362658#0 1091362658#1 1089563420 870457381 1016445802#1 1016445802#2 1016445802#3 1101822583#0 1101822583#1 1101822583#2 1097531047 -87390126#1 -87390126#0 -87391809 -1091356533#1 833940261"/>
    </vehicle>
    <vehicle id="veh29" type="veh_passenger" depart="29.00">
        <route edges="87389950 -87392210 -1101826163#3 -1101826163#2 -1101826163#1 -1101826163#0 1087114238#0 1087114238#1 1089568183#0 1089568183#1 939203349#0 939203349#1 939203349#2 939203350#0 939203350#2 939203350#3 87393434 863696829#0 863696829#1 863696829#2 87390464 406320071#1 406320071#2 406320071#3 87390204#0 87390204#1 87390204#2 87390204#3 939230033 913906200#0 913906200#1 913900806 87389436#0 87389436#1 87389436#2 87389436#3 87389436#4 87389436#5 1101827191#0 1101827191#1 1101827191#2 1101827191#3 1101827191#4 1101827191#5 940274820#1 940274820#2 1009920073#1 1105888094 486196065 1105888095 87392225#0 87392225#1 -1105888096 -940549977 -1105888097 -1105888098 836210999"/>
    </vehicle>
    <vehicle id="veh30" type="veh_passenger" depart="30.00">
        <route edges="-87389648#1 -87389648#0 1101822583#0 1101822583#1 1101822583#2 1097531047 1097531046 1016445800#1 1016445800#2 1016445800#3 1016445800#4 1016445800#5 1411690225 1411690224#1 1411690224#2 1411690224#2-AddedOffRampEdge 1411690209 -1110409466#0 -87389593#22 -87389593#21 -87389593#20 -87389593#19 -87389593#18 -87389593#17 -87389593#16 -87389593#15 -496915263 -1091362656 -834321243"/>
    </vehicle>
    <vehicle id="veh31" type="veh_passenger" depart="31.00">
        <route edges="-833950525#0 -113868670#3 -113868670#2 87390397#1 87390397#2 -1105898927 -1105898928#1 -1105898928#0 -1105898929 -1091346387 -1089561933 87391803 1107855711#0 1107855711#1 1091346385 87390949#0 87390949#1 87390949#2 1169371530 627276950#0 627276950#1 833625256#1 1105888083 1105888084 1096782525 1091356540#0 87390405#0 87390405#3 87390405#4 87390405#5 87390405#6 87390405#7 1087984858 1095438762 1097531057 1016550049#1 1016550049#2 1097531056 350346291 1097531055 1095438763#0 87392915#0"/>
    </vehicle>
    <vehicle id="veh32" type="veh_passenger" depart="32.00">
        <route edges="87390797#7 87391058#0 87391058#1 87392393#1 87392393#2 87392393#3 87392393#4 87390000#2 87390000#3 1172487990 834306887 87390278#0 87390278#1 87393989#0 87393989#1 87393989#2 87393989#3 87393989#4 87390539#1 87390539#2 87391159#3 87390399#2 -87390399#2"/>
    </vehicle>
    <vehicle id="veh33" type="veh_passenger" depart="33.00">
        <route edges="87391795#1 87391795#2 87391795#3 87390114 -1101824047 -87393246#1 -87393246#0 -340140378#2 -340140378#1 -340140378#0 -1089368251 -1095431349#4 -1095431349#3 -1095431349#2 -1095431349#1 -1095431349#0 -1089368252#5 -1089368252#4 -1089368252#3 -1089368252#2 -1089368252#1 -1089368252#0 -1091358377#2 -1091358377#1 -1091358377#0 -1087114230#4 -1087114230#3 -1087114230#2 -1087114230#1 -1087114230#0 87391624 87389761#3 87389761#4 -87389963#0 1087114231#1"/>
    </vehicle>
    <vehicle id="veh34" type="veh_passenger" depart="34.00">
        <route edges="-834289289#4 -615948342#0 87390278#1 87393989#0 87393989#1 87393989#2 87393989#3 87393989#4 87393989#5 87393989#6 87393989#8 913896419 913896418 913897052 913897722#0 913897722#1 340140373 1169371944#0 913898536#0 913898536#1 1089563432 340140375#0 340140375#1 1105898944 340140377 1105898943 936574255 1089561452#0 1089561452#1 87393201 401434293 1169375481 1089368255#0 1089368255#1 87390065 1169375480 1022235289 834015075 -541727245 -1095431347#1 -1095431347#0 -541727254#8 -541727254#7 -541727254#6 -541727254#5 -541727254#4 -541727254#3 -541727254#2 -541727254#1 -541727254#0 -834243061#0 -87391184#19 -87391184#17 -87391184#16 -87391184#15 -87391184#14 -87391184#13 -87391184#12 -87391184#10 -87391184#9 -87391184#8 -87391184#7 -87391184#6 -87391184#4 -87391184#3 -87391184#2 834282139#0 -834282139#0"/>
    </vehicle>
    <vehicle id="veh35" type="veh_passenger" depart="35.00">
        <route edges="113868670#6 913903361 -913903362 -1105898925 -412603187 -1105898926#0 -1105898927 -1105898928#1 -1105898928#0 -1105898929 -1091346387 -1089561933 87391803 1107855711#0 1107855711#1 1091346385 87390949#0 87390949#1 87390949#2 1169371530 627276950#0 627276950#1 833625256#1 1105888083 1105888084 1096782525 1091356540#0 87390405#0 87390405#3 87390405#4 87390405#5 87390405#6 87390405#7 1087984858 1095438762 1097531057 1016550049#1 1016550049#2 1097531056 350346291 1097531055 1095438763#0 1095438764 1095438765 1095438766 1087114225 406320072 1089561454 1097531054 1087114224 87389753 1089368217 1091358364 1088690946#0 1088690946#1 87393089#0 87393089#1 87393089#2 1101817936 1172503318 87391383#0 87391383#1 87391383#2 87391383#3 87391383#4 87391383#5 87391383#6 1091358380#0 1091358380#1 1091358380#2 1091358380#4 1091358380#6 1091358380#7 1091358380#8 1091358380#9 87392521#1 1172494776#1 1172494776#3 1172494776#5 -834310557"/>
    </vehicle>
    <vehicle id="veh36" type="veh_passenger" depart="36.00">
        <route edges="939771724#0 939771724#1 939771725#0 939771725#1 939771725#2 1091356541#1 1105888112 1105888111 1105888110#0 1105888109 1105888108 1105888107 1105888106 1105888104 1105888103 1105888102 1105888101 627819469 1105888100 1105888099 1105888098 1105888097 940549977 1105888096 -87392225#1 -87392225#0 -1105888095 -486196065 -1105888094 486196064#0 940275700#0 1089368241#1 1089368241#2 1089368241#3 1182585615#0 1182585615#1 1089368236#0 1089368236#1 1089368236#2 1091358366#0 1091358366#1 1089368240#0 1089368240#1 1089368240#2 1089368240#3 1089368240#4 1089368240#5 1089368240#6 406320076#1 406320076#2 406320076#3 406320076#4 406320076#5 406320076#6 627276963#0 627276963#1 -1095438773#1 -1095438773#0 -1095438772#1 -1095438772#0 -1112351473 -254753595 87390701#0 87390701#1 87390701#2 87390701#3 87390701#4 87390701#5 1105898946 1105898945 87390041#0 87390041#1 1169375481 1087114225 406320072 1089561454 1097531054 1087114224 87389753 1089368217 1091358364 1088690946#0 1088690946#1 87389917#0 87389917#1 87389917#2 1101824046#0"/>
    </vehicle>
    <vehicle id="veh37" type="veh_passenger" depart="37.00">
        <route edges="-326169664 326169664 1091358367#1 1089368240#0 1089368240#1 1089368240#2 1089368240#3 1089368240#4 1089368240#5 1089368240#6 87390204#0 87390204#1 87390204#2 87390204#3 87390204#6 87390204#7 936198012#0 936198012#1 936198011 1089561932#1 87390123#0 87390123#1 1089561933 1091346387 1105898929 1105898928#0 1105898928#1 1105898927 1105898926#0 1105898926#1 1105898925 -87390868#1 -87390868#0 -1097531073 -1097531074 -1097531075 -1097531076"/>
    </vehicle>
    <vehicle id="veh38" type="veh_passenger" depart="38.00">
        <route edges="-496915278#0 1087114240#2 87393629#0 87393629#1 87393629#2 87393629#3 87393629#4 -87391844#10 -87391844#9 -87391844#8 -87391844#7 -87391844#6 87390489#2 87390489#3 87390489#4 939203350#0 939203350#2 939203350#3 627249329#3"/>
    </vehicle>
    <vehicle id="veh39" type="veh_passenger" depart="39.00">
        <route edges="-1105898968#0 -87390003#0 -87393518 627276940#0 627276940#1 627276940#2 87390397#0 87390397#1 87390397#2 -1105898927 -1105898928#1 -1105898928#0 -1105898929 -1091346387 -1089561933 87391803 1107855711#0 1107855711#1 1091346385 1091346386 1091346384 87389635#0 87389635#1 87389635#2 87389635#3 87389635#4 913906198#0 913906198#1 913906198#2 254753596#0 254753596#1 254753596#2 254753596#3 1087984862#4 1087984862#5 1087984862#6 1087984862#7 1087984862#8 1087984862#9 1087984862#11 1087984862#12 87391844#0 87391844#1 87391844#2 87391844#3 87391844#5 87391844#6 87391844#7 833590275#1 87389819#0 87389819#1 87390198#0 -87392689"/>
    </vehicle>
    <vehicle id="veh40" type="veh_passenger" depart="40.00">
        <route edges="936574255 1089561452#0 1089561452#1 87393201 1169375482#0 1169375482#1 1091361984 87389640#0 87389640#1 1095438767 1095438768 1095438769 1095438771#0 1095438771#1 254753595 1112351473 1095438772#0 1095438772#1 87389684 87389545#0 87391801#4 113884917"/>
    </vehicle>
    <vehicle id="veh41" type="veh_passenger" depart="41.00">